* NGSPICE file created from spm.ext - technology: sky130A

* Black-box entry subcircuit for sky130_fd_sc_hd__fill_2 abstract view
.subckt sky130_fd_sc_hd__fill_2 VGND VPWR
.ends

* Black-box entry subcircuit for sky130_fd_sc_hd__diode_2 abstract view
.subckt sky130_fd_sc_hd__diode_2 DIODE VGND VPWR
.ends

* Black-box entry subcircuit for sky130_fd_sc_hd__and2_4 abstract view
.subckt sky130_fd_sc_hd__and2_4 A B X VGND VPWR
.ends

* Black-box entry subcircuit for sky130_fd_sc_hd__buf_1 abstract view
.subckt sky130_fd_sc_hd__buf_1 A X VGND VPWR
.ends

* Black-box entry subcircuit for sky130_fd_sc_hd__fill_1 abstract view
.subckt sky130_fd_sc_hd__fill_1 VGND VPWR
.ends

* Black-box entry subcircuit for sky130_fd_sc_hd__decap_3 abstract view
.subckt sky130_fd_sc_hd__decap_3 VGND VPWR
.ends

* Black-box entry subcircuit for sky130_fd_sc_hd__decap_6 abstract view
.subckt sky130_fd_sc_hd__decap_6 VGND VPWR
.ends

* Black-box entry subcircuit for sky130_fd_sc_hd__clkbuf_1 abstract view
.subckt sky130_fd_sc_hd__clkbuf_1 A X VGND VPWR
.ends

* Black-box entry subcircuit for sky130_fd_sc_hd__dfrtp_4 abstract view
.subckt sky130_fd_sc_hd__dfrtp_4 D Q RESET_B CLK VGND VPWR
.ends

* Black-box entry subcircuit for sky130_fd_sc_hd__decap_4 abstract view
.subckt sky130_fd_sc_hd__decap_4 VGND VPWR
.ends

* Black-box entry subcircuit for sky130_fd_sc_hd__inv_8 abstract view
.subckt sky130_fd_sc_hd__inv_8 A Y VGND VPWR
.ends

* Black-box entry subcircuit for sky130_fd_sc_hd__xor2_4 abstract view
.subckt sky130_fd_sc_hd__xor2_4 A B X VGND VPWR
.ends

* Black-box entry subcircuit for sky130_fd_sc_hd__tapvpwrvgnd_1 abstract view
.subckt sky130_fd_sc_hd__tapvpwrvgnd_1 VGND VPWR
.ends

* Black-box entry subcircuit for sky130_fd_sc_hd__decap_12 abstract view
.subckt sky130_fd_sc_hd__decap_12 VGND VPWR
.ends

* Black-box entry subcircuit for sky130_fd_sc_hd__a2bb2o_4 abstract view
.subckt sky130_fd_sc_hd__a2bb2o_4 A1_N A2_N B1 B2 X VGND VPWR
.ends

* Black-box entry subcircuit for sky130_fd_sc_hd__o22a_4 abstract view
.subckt sky130_fd_sc_hd__o22a_4 A1 A2 B1 B2 X VGND VPWR
.ends

* Black-box entry subcircuit for sky130_fd_sc_hd__decap_8 abstract view
.subckt sky130_fd_sc_hd__decap_8 VGND VPWR
.ends

* Black-box entry subcircuit for sky130_fd_sc_hd__clkbuf_16 abstract view
.subckt sky130_fd_sc_hd__clkbuf_16 A X VGND VPWR
.ends

* Black-box entry subcircuit for sky130_fd_sc_hd__a21boi_4 abstract view
.subckt sky130_fd_sc_hd__a21boi_4 A1 A2 B1_N Y VGND VPWR
.ends

* Black-box entry subcircuit for sky130_fd_sc_hd__or2_4 abstract view
.subckt sky130_fd_sc_hd__or2_4 A B X VGND VPWR
.ends

.subckt spm clk p rst x[0] x[10] x[11] x[12] x[13] x[14] x[15] x[16] x[17] x[18] x[19]
+ x[1] x[20] x[21] x[22] x[23] x[24] x[25] x[26] x[27] x[28] x[29] x[2] x[30] x[31]
+ x[3] x[4] x[5] x[6] x[7] x[8] x[9] y
XFILLER_39_211 _600_/VGND _610_/VPWR sky130_fd_sc_hd__fill_2
XANTENNA__666__D _666_/D _571_/VGND _585_/VPWR sky130_fd_sc_hd__diode_2
XFILLER_22_144 _599_/VGND _686_/VPWR sky130_fd_sc_hd__fill_2
XFILLER_22_133 _599_/VGND _686_/VPWR sky130_fd_sc_hd__fill_2
XANTENNA__510__A1 _506_/Y _601_/VGND _687_/VPWR sky130_fd_sc_hd__diode_2
XANTENNA__510__B2 _507_/A _601_/VGND _380_/VPWR sky130_fd_sc_hd__diode_2
X_501_ _508_/A x[8] _502_/A _610_/VGND _607_/VPWR sky130_fd_sc_hd__and2_4
XFILLER_26_41 _597_/VGND _598_/VPWR sky130_fd_sc_hd__fill_2
X_432_ _428_/X _432_/X _575_/VGND _574_/VPWR sky130_fd_sc_hd__buf_1
XFILLER_13_111 _571_/VGND _585_/VPWR sky130_fd_sc_hd__fill_2
XFILLER_42_40 _607_/VGND _607_/VPWR sky130_fd_sc_hd__fill_1
X_363_ _363_/A _363_/X _575_/VGND _576_/VPWR sky130_fd_sc_hd__buf_1
XANTENNA__568__A1 _564_/Y _599_/VGND _685_/VPWR sky130_fd_sc_hd__diode_2
XANTENNA__568__B2 _565_/A _599_/VGND _686_/VPWR sky130_fd_sc_hd__diode_2
XANTENNA__670__RESET_B _401_/X _585_/VGND _683_/VPWR sky130_fd_sc_hd__diode_2
XFILLER_27_236 _597_/VGND _594_/VPWR sky130_fd_sc_hd__fill_2
XFILLER_12_32 _571_/VGND _679_/VPWR sky130_fd_sc_hd__fill_2
XFILLER_12_54 _571_/VGND _679_/VPWR sky130_fd_sc_hd__fill_2
XANTENNA__612__A2_N _608_/Y _610_/VGND _610_/VPWR sky130_fd_sc_hd__diode_2
XFILLER_37_62 _595_/VGND _600_/VPWR sky130_fd_sc_hd__decap_3
XANTENNA__627__A2_N _622_/Y _597_/VGND _594_/VPWR sky130_fd_sc_hd__diode_2
X_415_ _414_/A _415_/X _595_/VGND _600_/VPWR sky130_fd_sc_hd__buf_1
X_346_ _624_/A x[29] _347_/A PHY_1/VGND PHY_5/VPWR sky130_fd_sc_hd__and2_4
XANTENNA__656__CLK _659_/CLK _380_/VGND _594_/VPWR sky130_fd_sc_hd__diode_2
XFILLER_5_140 _582_/VGND _579_/VPWR sky130_fd_sc_hd__decap_6
XFILLER_5_173 _582_/VGND _579_/VPWR sky130_fd_sc_hd__fill_2
XFILLER_5_184 _582_/VGND _579_/VPWR sky130_fd_sc_hd__fill_2
XANTENNA__679__CLK _695_/CLK _571_/VGND _679_/VPWR sky130_fd_sc_hd__diode_2
XFILLER_2_165 PHY_7/VGND PHY_5/VPWR sky130_fd_sc_hd__fill_2
XFILLER_2_154 PHY_7/VGND PHY_5/VPWR sky130_fd_sc_hd__fill_2
XFILLER_2_143 PHY_7/VGND PHY_5/VPWR sky130_fd_sc_hd__decap_6
XFILLER_2_132 PHY_7/VGND PHY_5/VPWR sky130_fd_sc_hd__fill_2
XANTENNA__468__B1 _466_/X _590_/VGND _591_/VPWR sky130_fd_sc_hd__diode_2
XANTENNA__640__B1 _697_/Q _585_/VGND _683_/VPWR sky130_fd_sc_hd__diode_2
XANTENNA__504__A2_N _500_/Y _600_/VGND _610_/VPWR sky130_fd_sc_hd__diode_2
XFILLER_9_33 _575_/VGND _576_/VPWR sky130_fd_sc_hd__fill_2
XFILLER_9_44 _575_/VGND _576_/VPWR sky130_fd_sc_hd__fill_2
Xclkbuf_3_1_0_clk clkbuf_2_0_0_clk/X _670_/CLK _585_/VGND _585_/VPWR sky130_fd_sc_hd__clkbuf_1
XANTENNA__519__A2_N _514_/Y _585_/VGND _683_/VPWR sky130_fd_sc_hd__diode_2
XANTENNA__674__D _556_/X _381_/VGND _596_/VPWR sky130_fd_sc_hd__diode_2
XANTENNA__702__RESET_B _361_/X PHY_7/VGND PHY_9/VPWR sky130_fd_sc_hd__diode_2
X_680_ _680_/D _565_/A _389_/X _695_/CLK _571_/VGND _585_/VPWR sky130_fd_sc_hd__dfrtp_4
XFILLER_18_64 _590_/VGND _591_/VPWR sky130_fd_sc_hd__fill_2
XFILLER_18_86 _590_/VGND _591_/VPWR sky130_fd_sc_hd__fill_2
XFILLER_11_231 _390_/VGND _679_/VPWR sky130_fd_sc_hd__fill_2
XANTENNA__490__A2_N _486_/Y _596_/VGND _596_/VPWR sky130_fd_sc_hd__diode_2
XANTENNA__402__A _398_/A _382_/VGND _586_/VPWR sky130_fd_sc_hd__diode_2
XANTENNA__669__D _669_/D _590_/VGND _586_/VPWR sky130_fd_sc_hd__diode_2
XANTENNA__604__B1 _600_/A _596_/VGND _604_/VPWR sky130_fd_sc_hd__diode_2
XFILLER_29_128 _380_/VGND _380_/VPWR sky130_fd_sc_hd__fill_2
XFILLER_29_117 _380_/VGND _380_/VPWR sky130_fd_sc_hd__decap_4
XFILLER_37_194 _595_/VGND _600_/VPWR sky130_fd_sc_hd__decap_4
XANTENNA__598__A1_N _593_/Y _593_/VGND _598_/VPWR sky130_fd_sc_hd__diode_2
XANTENNA__583__A1_N _578_/Y PHY_1/VGND PHY_1/VPWR sky130_fd_sc_hd__diode_2
XFILLER_20_32 _382_/VGND _586_/VPWR sky130_fd_sc_hd__fill_2
XFILLER_20_43 _382_/VGND _586_/VPWR sky130_fd_sc_hd__decap_3
XFILLER_35_109 _596_/VGND _604_/VPWR sky130_fd_sc_hd__fill_2
X_594_ _688_/Q _594_/Y _380_/VGND _594_/VPWR sky130_fd_sc_hd__inv_8
X_663_ _663_/D _663_/Q _411_/X _663_/CLK _382_/VGND _586_/VPWR sky130_fd_sc_hd__dfrtp_4
XFILLER_6_23 _388_/VGND _579_/VPWR sky130_fd_sc_hd__fill_2
XFILLER_6_78 _388_/VGND _579_/VPWR sky130_fd_sc_hd__fill_2
XANTENNA__695__RESET_B _370_/X _384_/VGND _591_/VPWR sky130_fd_sc_hd__diode_2
XFILLER_13_3 _571_/VGND _585_/VPWR sky130_fd_sc_hd__fill_2
XFILLER_34_142 _596_/VGND _596_/VPWR sky130_fd_sc_hd__decap_4
XFILLER_1_219 PHY_1/VGND PHY_5/VPWR sky130_fd_sc_hd__decap_4
XFILLER_1_208 PHY_1/VGND PHY_5/VPWR sky130_fd_sc_hd__fill_2
XANTENNA__335__A2_N _637_/Y _590_/VGND _591_/VPWR sky130_fd_sc_hd__diode_2
XFILLER_25_120 _593_/VGND _598_/VPWR sky130_fd_sc_hd__fill_2
XFILLER_17_109 _384_/VGND _591_/VPWR sky130_fd_sc_hd__fill_2
XFILLER_31_53 _601_/VGND _687_/VPWR sky130_fd_sc_hd__fill_2
XFILLER_31_42 _601_/VGND _687_/VPWR sky130_fd_sc_hd__decap_4
XFILLER_25_197 _593_/VGND _598_/VPWR sky130_fd_sc_hd__fill_2
XFILLER_15_54 _585_/VGND _683_/VPWR sky130_fd_sc_hd__fill_2
XANTENNA__475__A1_N _470_/Y _597_/VGND _598_/VPWR sky130_fd_sc_hd__diode_2
XFILLER_31_134 _601_/VGND _687_/VPWR sky130_fd_sc_hd__decap_6
XFILLER_31_123 _601_/VGND _687_/VPWR sky130_fd_sc_hd__fill_2
XFILLER_31_101 _601_/VGND _687_/VPWR sky130_fd_sc_hd__fill_2
X_646_ _455_/X _438_/A _431_/X _663_/CLK PHY_7/VGND PHY_9/VPWR sky130_fd_sc_hd__dfrtp_4
X_577_ _577_/A _575_/X _680_/D _390_/VGND _679_/VPWR sky130_fd_sc_hd__xor2_4
XPHY_170 _382_/VGND _586_/VPWR sky130_fd_sc_hd__tapvpwrvgnd_1
XPHY_192 _593_/VGND _598_/VPWR sky130_fd_sc_hd__tapvpwrvgnd_1
XPHY_181 _599_/VGND _686_/VPWR sky130_fd_sc_hd__tapvpwrvgnd_1
XFILLER_39_245 _600_/VGND _610_/VPWR sky130_fd_sc_hd__fill_2
XFILLER_22_112 _599_/VGND _686_/VPWR sky130_fd_sc_hd__fill_1
XANTENNA__682__D _584_/X _388_/VGND _574_/VPWR sky130_fd_sc_hd__diode_2
XANTENNA__510__A2 _507_/Y _601_/VGND _380_/VPWR sky130_fd_sc_hd__diode_2
X_500_ _500_/A _500_/Y _600_/VGND _600_/VPWR sky130_fd_sc_hd__inv_8
XANTENNA__500__A _500_/A _595_/VGND _600_/VPWR sky130_fd_sc_hd__diode_2
XFILLER_26_75 _597_/VGND _598_/VPWR sky130_fd_sc_hd__fill_2
X_431_ _428_/X _431_/X _582_/VGND _579_/VPWR sky130_fd_sc_hd__buf_1
X_362_ _363_/A _362_/X PHY_7/VGND PHY_9/VPWR sky130_fd_sc_hd__buf_1
XFILLER_13_123 _571_/VGND _585_/VPWR sky130_fd_sc_hd__fill_2
XFILLER_13_134 _571_/VGND _585_/VPWR sky130_fd_sc_hd__fill_2
XFILLER_42_63 _607_/VGND _607_/VPWR sky130_fd_sc_hd__decap_4
XFILLER_42_52 _607_/VGND _607_/VPWR sky130_fd_sc_hd__fill_2
XFILLER_3_24 PHY_7/VGND PHY_9/VPWR sky130_fd_sc_hd__fill_2
XANTENNA__410__A _422_/A _382_/VGND _686_/VPWR sky130_fd_sc_hd__diode_2
XFILLER_36_215 _595_/VGND _604_/VPWR sky130_fd_sc_hd__decap_4
XFILLER_36_204 _595_/VGND _604_/VPWR sky130_fd_sc_hd__fill_2
X_629_ _629_/A _629_/Y _382_/VGND _586_/VPWR sky130_fd_sc_hd__inv_8
XANTENNA__568__A2 _565_/Y _382_/VGND _686_/VPWR sky130_fd_sc_hd__diode_2
XANTENNA__677__D _677_/D _593_/VGND _598_/VPWR sky130_fd_sc_hd__diode_2
XFILLER_42_218 _607_/VGND _607_/VPWR sky130_fd_sc_hd__fill_2
XFILLER_42_207 _607_/VGND _607_/VPWR sky130_fd_sc_hd__fill_2
XFILLER_6_108 _388_/VGND _579_/VPWR sky130_fd_sc_hd__fill_2
XFILLER_10_115 _390_/VGND _576_/VPWR sky130_fd_sc_hd__fill_2
XFILLER_10_148 _390_/VGND _576_/VPWR sky130_fd_sc_hd__decap_4
XFILLER_10_159 _390_/VGND _576_/VPWR sky130_fd_sc_hd__fill_2
XFILLER_37_74 _595_/VGND _600_/VPWR sky130_fd_sc_hd__fill_2
XFILLER_18_215 _590_/VGND _591_/VPWR sky130_fd_sc_hd__decap_3
X_414_ _414_/A _414_/X _600_/VGND _610_/VPWR sky130_fd_sc_hd__buf_1
X_345_ _704_/Q _345_/Y PHY_7/VGND PHY_5/VPWR sky130_fd_sc_hd__inv_8
XANTENNA__405__A _409_/A _575_/VGND _576_/VPWR sky130_fd_sc_hd__diode_2
XFILLER_23_87 _599_/VGND _685_/VPWR sky130_fd_sc_hd__fill_2
XANTENNA__468__B2 _467_/X _590_/VGND _591_/VPWR sky130_fd_sc_hd__diode_2
XFILLER_0_14 PHY_1/VGND PHY_1/VPWR sky130_fd_sc_hd__decap_12
XANTENNA__640__B2 _700_/Q _585_/VGND _585_/VPWR sky130_fd_sc_hd__diode_2
XANTENNA__640__A1 _636_/Y _585_/VGND _683_/VPWR sky130_fd_sc_hd__diode_2
XANTENNA__649__RESET_B _427_/X _590_/VGND _586_/VPWR sky130_fd_sc_hd__diode_2
XFILLER_9_56 _575_/VGND _576_/VPWR sky130_fd_sc_hd__fill_1
XFILLER_9_67 _575_/VGND _576_/VPWR sky130_fd_sc_hd__fill_2
XFILLER_9_89 _575_/VGND _576_/VPWR sky130_fd_sc_hd__fill_2
XANTENNA__690__D _613_/X _596_/VGND _604_/VPWR sky130_fd_sc_hd__diode_2
XANTENNA__646__CLK _663_/CLK PHY_7/VGND PHY_5/VPWR sky130_fd_sc_hd__diode_2
XFILLER_18_32 _590_/VGND _591_/VPWR sky130_fd_sc_hd__fill_2
XFILLER_34_86 _596_/VGND _596_/VPWR sky130_fd_sc_hd__fill_2
XFILLER_7_225 _388_/VGND _574_/VPWR sky130_fd_sc_hd__fill_2
XFILLER_7_236 _388_/VGND _574_/VPWR sky130_fd_sc_hd__fill_2
XFILLER_22_8 _599_/VGND _686_/VPWR sky130_fd_sc_hd__fill_2
XFILLER_37_184 _595_/VGND _600_/VPWR sky130_fd_sc_hd__decap_3
XANTENNA__604__B2 _690_/Q _596_/VGND _604_/VPWR sky130_fd_sc_hd__diode_2
XANTENNA__604__A1 _600_/Y _596_/VGND _604_/VPWR sky130_fd_sc_hd__diode_2
XANTENNA__685__D _598_/X _599_/VGND _685_/VPWR sky130_fd_sc_hd__diode_2
XANTENNA__669__CLK _698_/CLK _384_/VGND _591_/VPWR sky130_fd_sc_hd__diode_2
XANTENNA__540__B1 _541_/A _384_/VGND _591_/VPWR sky130_fd_sc_hd__diode_2
XFILLER_20_77 _382_/VGND _586_/VPWR sky130_fd_sc_hd__decap_4
XFILLER_20_88 _382_/VGND _586_/VPWR sky130_fd_sc_hd__decap_4
X_662_ _512_/X _500_/A _412_/X _673_/CLK _595_/VGND _600_/VPWR sky130_fd_sc_hd__dfrtp_4
XFILLER_28_151 _380_/VGND _594_/VPWR sky130_fd_sc_hd__fill_2
X_593_ _685_/Q _593_/Y _593_/VGND _598_/VPWR sky130_fd_sc_hd__inv_8
Xclkbuf_3_0_0_clk clkbuf_2_0_0_clk/X _663_/CLK _384_/VGND _683_/VPWR sky130_fd_sc_hd__clkbuf_1
XANTENNA__413__A _414_/A _601_/VGND _380_/VPWR sky130_fd_sc_hd__diode_2
XFILLER_34_132 _596_/VGND _596_/VPWR sky130_fd_sc_hd__decap_4
XANTENNA__598__B1 _596_/X _597_/VGND _598_/VPWR sky130_fd_sc_hd__diode_2
XANTENNA__664__RESET_B _409_/X _382_/VGND _586_/VPWR sky130_fd_sc_hd__diode_2
XFILLER_19_162 _590_/VGND _586_/VPWR sky130_fd_sc_hd__fill_2
XFILLER_19_184 _590_/VGND _586_/VPWR sky130_fd_sc_hd__fill_2
XFILLER_34_187 _596_/VGND _596_/VPWR sky130_fd_sc_hd__fill_2
XFILLER_34_154 _596_/VGND _596_/VPWR sky130_fd_sc_hd__fill_2
XFILLER_25_165 _593_/VGND _598_/VPWR sky130_fd_sc_hd__fill_2
XFILLER_25_132 _593_/VGND _598_/VPWR sky130_fd_sc_hd__fill_2
XFILLER_31_76 _601_/VGND _687_/VPWR sky130_fd_sc_hd__fill_2
XFILLER_0_231 PHY_1/VGND PHY_1/VPWR sky130_fd_sc_hd__fill_2
X_645_ _645_/D _645_/Q _432_/X _663_/CLK _388_/VGND _574_/VPWR sky130_fd_sc_hd__dfrtp_4
XFILLER_31_168 _601_/VGND _687_/VPWR sky130_fd_sc_hd__fill_2
XFILLER_31_157 _601_/VGND _687_/VPWR sky130_fd_sc_hd__fill_2
XFILLER_31_113 _601_/VGND _687_/VPWR sky130_fd_sc_hd__fill_2
XPHY_193 _593_/VGND _598_/VPWR sky130_fd_sc_hd__tapvpwrvgnd_1
XPHY_182 _599_/VGND _685_/VPWR sky130_fd_sc_hd__tapvpwrvgnd_1
XANTENNA__408__A _409_/A _575_/VGND _576_/VPWR sky130_fd_sc_hd__diode_2
X_576_ _571_/Y _572_/Y _577_/A _575_/X _679_/D _390_/VGND _576_/VPWR sky130_fd_sc_hd__a2bb2o_4
XFILLER_16_143 _384_/VGND _683_/VPWR sky130_fd_sc_hd__fill_2
XFILLER_16_154 _384_/VGND _683_/VPWR sky130_fd_sc_hd__fill_2
XPHY_160 _384_/VGND _591_/VPWR sky130_fd_sc_hd__tapvpwrvgnd_1
XPHY_171 _382_/VGND _586_/VPWR sky130_fd_sc_hd__tapvpwrvgnd_1
XANTENNA__504__B1 _502_/X _610_/VGND _610_/VPWR sky130_fd_sc_hd__diode_2
XFILLER_39_202 _600_/VGND _610_/VPWR sky130_fd_sc_hd__decap_3
XFILLER_22_102 _599_/VGND _686_/VPWR sky130_fd_sc_hd__decap_4
XFILLER_26_32 _597_/VGND _598_/VPWR sky130_fd_sc_hd__decap_6
XFILLER_26_21 _597_/VGND _598_/VPWR sky130_fd_sc_hd__fill_2
XFILLER_26_87 _597_/VGND _598_/VPWR sky130_fd_sc_hd__fill_1
X_361_ _363_/A _361_/X _582_/VGND _579_/VPWR sky130_fd_sc_hd__buf_1
XFILLER_9_128 _575_/VGND _576_/VPWR sky130_fd_sc_hd__fill_2
X_430_ _428_/X _430_/X _390_/VGND _679_/VPWR sky130_fd_sc_hd__buf_1
XFILLER_36_238 _595_/VGND _604_/VPWR sky130_fd_sc_hd__decap_12
X_628_ _628_/A _628_/B _628_/X _601_/VGND _380_/VPWR sky130_fd_sc_hd__xor2_4
X_559_ _559_/A x[16] _559_/X _610_/VGND _607_/VPWR sky130_fd_sc_hd__and2_4
XFILLER_8_172 _575_/VGND _574_/VPWR sky130_fd_sc_hd__fill_2
XFILLER_12_190 _571_/VGND _679_/VPWR sky130_fd_sc_hd__fill_2
XANTENNA__601__A _690_/Q _601_/VGND _687_/VPWR sky130_fd_sc_hd__diode_2
XANTENNA__349__A2_N _345_/Y PHY_1/VGND PHY_1/VPWR sky130_fd_sc_hd__diode_2
XFILLER_27_249 _597_/VGND _594_/VPWR sky130_fd_sc_hd__decap_4
XFILLER_27_205 _597_/VGND _594_/VPWR sky130_fd_sc_hd__fill_2
XANTENNA__693__D _693_/D _601_/VGND _687_/VPWR sky130_fd_sc_hd__diode_2
XFILLER_12_23 _571_/VGND _679_/VPWR sky130_fd_sc_hd__fill_2
XFILLER_12_67 _571_/VGND _679_/VPWR sky130_fd_sc_hd__decap_4
XFILLER_37_53 _595_/VGND _600_/VPWR sky130_fd_sc_hd__decap_4
X_413_ _414_/A _413_/X _381_/VGND _687_/VPWR sky130_fd_sc_hd__buf_1
XFILLER_18_238 _590_/VGND _591_/VPWR sky130_fd_sc_hd__decap_12
XFILLER_41_241 _610_/VGND _607_/VPWR sky130_fd_sc_hd__decap_3
X_344_ _701_/Q _344_/Y PHY_1/VGND PHY_5/VPWR sky130_fd_sc_hd__inv_8
XANTENNA__421__A _420_/A _593_/VGND _598_/VPWR sky130_fd_sc_hd__diode_2
XFILLER_5_153 _582_/VGND _579_/VPWR sky130_fd_sc_hd__fill_2
XFILLER_5_197 _582_/VGND _579_/VPWR sky130_fd_sc_hd__decap_4
XANTENNA__688__D _606_/X _380_/VGND _380_/VPWR sky130_fd_sc_hd__diode_2
XFILLER_15_208 _585_/VGND _683_/VPWR sky130_fd_sc_hd__fill_2
XANTENNA__506__A _661_/Q _597_/VGND _594_/VPWR sky130_fd_sc_hd__diode_2
XFILLER_23_44 _599_/VGND _685_/VPWR sky130_fd_sc_hd__fill_2
XFILLER_23_33 _599_/VGND _685_/VPWR sky130_fd_sc_hd__fill_2
XFILLER_3_3 PHY_7/VGND PHY_9/VPWR sky130_fd_sc_hd__fill_2
XFILLER_2_101 PHY_7/VGND PHY_5/VPWR sky130_fd_sc_hd__fill_1
XFILLER_0_26 PHY_1/VGND PHY_1/VPWR sky130_fd_sc_hd__decap_4
XANTENNA__689__RESET_B _378_/X _600_/VGND _610_/VPWR sky130_fd_sc_hd__diode_2
XANTENNA__640__A2 _637_/Y _585_/VGND _585_/VPWR sky130_fd_sc_hd__diode_2
XANTENNA__416__A _422_/A _599_/VGND _685_/VPWR sky130_fd_sc_hd__diode_2
XFILLER_36_3 _595_/VGND _604_/VPWR sky130_fd_sc_hd__decap_4
XFILLER_34_43 _596_/VGND _596_/VPWR sky130_fd_sc_hd__decap_3
XFILLER_34_32 _596_/VGND _596_/VPWR sky130_fd_sc_hd__decap_4
XFILLER_29_108 _380_/VGND _380_/VPWR sky130_fd_sc_hd__fill_2
XANTENNA__604__A2 _601_/Y _596_/VGND _604_/VPWR sky130_fd_sc_hd__diode_2
XFILLER_4_207 _582_/VGND PHY_9/VPWR sky130_fd_sc_hd__decap_3
XANTENNA__540__B2 _539_/X _590_/VGND _591_/VPWR sky130_fd_sc_hd__diode_2
XFILLER_20_23 _382_/VGND _586_/VPWR sky130_fd_sc_hd__fill_2
X_661_ _511_/X _661_/Q _413_/X _673_/CLK _601_/VGND _687_/VPWR sky130_fd_sc_hd__dfrtp_4
XFILLER_29_87 _380_/VGND _380_/VPWR sky130_fd_sc_hd__fill_2
XFILLER_28_141 _380_/VGND _594_/VPWR sky130_fd_sc_hd__fill_2
X_592_ _592_/A _590_/X _592_/X _384_/VGND _591_/VPWR sky130_fd_sc_hd__xor2_4
XFILLER_6_36 _388_/VGND _579_/VPWR sky130_fd_sc_hd__fill_1
XANTENNA__598__B2 _597_/X _593_/VGND _598_/VPWR sky130_fd_sc_hd__diode_2
XFILLER_19_174 _590_/VGND _586_/VPWR sky130_fd_sc_hd__fill_1
XANTENNA__696__D _696_/D _599_/VGND _685_/VPWR sky130_fd_sc_hd__diode_2
XFILLER_40_158 _610_/VGND _610_/VPWR sky130_fd_sc_hd__fill_1
XFILLER_25_100 _593_/VGND _598_/VPWR sky130_fd_sc_hd__fill_2
XFILLER_31_66 _601_/VGND _687_/VPWR sky130_fd_sc_hd__decap_4
XANTENNA__514__A _514_/A _585_/VGND _585_/VPWR sky130_fd_sc_hd__diode_2
X_575_ _571_/Y _572_/Y _679_/Q _572_/A _575_/X _575_/VGND _576_/VPWR sky130_fd_sc_hd__o22a_4
X_644_ _448_/Y _352_/A _433_/X _698_/CLK _390_/VGND _576_/VPWR sky130_fd_sc_hd__dfrtp_4
XFILLER_16_122 _384_/VGND _683_/VPWR sky130_fd_sc_hd__fill_1
XANTENNA__659__CLK _659_/CLK _600_/VGND _610_/VPWR sky130_fd_sc_hd__diode_2
XFILLER_31_147 _601_/VGND _687_/VPWR sky130_fd_sc_hd__decap_4
XPHY_194 _597_/VGND _598_/VPWR sky130_fd_sc_hd__tapvpwrvgnd_1
XPHY_183 _599_/VGND _685_/VPWR sky130_fd_sc_hd__tapvpwrvgnd_1
XANTENNA__424__A _423_/A _599_/VGND _685_/VPWR sky130_fd_sc_hd__diode_2
XPHY_150 _585_/VGND _683_/VPWR sky130_fd_sc_hd__tapvpwrvgnd_1
XFILLER_16_188 _384_/VGND _683_/VPWR sky130_fd_sc_hd__fill_2
XFILLER_16_199 _384_/VGND _683_/VPWR sky130_fd_sc_hd__fill_2
XPHY_161 _384_/VGND _591_/VPWR sky130_fd_sc_hd__tapvpwrvgnd_1
XPHY_172 _382_/VGND _586_/VPWR sky130_fd_sc_hd__tapvpwrvgnd_1
XANTENNA__504__B2 _503_/X _600_/VGND _610_/VPWR sky130_fd_sc_hd__diode_2
XFILLER_39_236 _600_/VGND _610_/VPWR sky130_fd_sc_hd__decap_3
XFILLER_30_191 _601_/VGND _380_/VPWR sky130_fd_sc_hd__decap_4
XFILLER_22_169 _599_/VGND _686_/VPWR sky130_fd_sc_hd__decap_4
XANTENNA__509__A _508_/X _595_/VGND _600_/VPWR sky130_fd_sc_hd__diode_2
XFILLER_42_76 _607_/VGND _607_/VPWR sky130_fd_sc_hd__decap_12
XFILLER_42_32 _607_/VGND _607_/VPWR sky130_fd_sc_hd__decap_8
X_360_ _372_/A _363_/A _582_/VGND PHY_9/VPWR sky130_fd_sc_hd__buf_1
XFILLER_13_158 _571_/VGND _585_/VPWR sky130_fd_sc_hd__decap_4
XFILLER_21_180 _382_/VGND _686_/VPWR sky130_fd_sc_hd__decap_3
XFILLER_21_191 _382_/VGND _686_/VPWR sky130_fd_sc_hd__fill_2
XFILLER_3_59 PHY_7/VGND PHY_9/VPWR sky130_fd_sc_hd__fill_2
XFILLER_3_15 PHY_7/VGND PHY_9/VPWR sky130_fd_sc_hd__decap_6
X_558_ _558_/A _558_/Y _601_/VGND _687_/VPWR sky130_fd_sc_hd__inv_8
X_627_ _621_/Y _622_/Y _628_/A _628_/B _693_/D _380_/VGND _594_/VPWR sky130_fd_sc_hd__a2bb2o_4
XANTENNA__419__A _420_/A _597_/VGND _594_/VPWR sky130_fd_sc_hd__diode_2
X_489_ _485_/Y _486_/Y _485_/A _486_/A _489_/X _381_/VGND _596_/VPWR sky130_fd_sc_hd__o22a_4
XFILLER_8_151 _575_/VGND _574_/VPWR sky130_fd_sc_hd__fill_2
XFILLER_12_180 _571_/VGND _679_/VPWR sky130_fd_sc_hd__decap_8
XANTENNA__489__B1 _485_/A _381_/VGND _687_/VPWR sky130_fd_sc_hd__diode_2
XFILLER_27_217 _597_/VGND _594_/VPWR sky130_fd_sc_hd__decap_4
XFILLER_10_106 _390_/VGND _576_/VPWR sky130_fd_sc_hd__decap_6
XFILLER_18_206 _590_/VGND _591_/VPWR sky130_fd_sc_hd__decap_4
X_412_ _414_/A _412_/X _595_/VGND _604_/VPWR sky130_fd_sc_hd__buf_1
X_343_ _340_/X _343_/B _700_/D _390_/VGND _576_/VPWR sky130_fd_sc_hd__xor2_4
XFILLER_38_7 _600_/VGND _600_/VPWR sky130_fd_sc_hd__decap_6
XFILLER_5_132 _582_/VGND _579_/VPWR sky130_fd_sc_hd__fill_2
XANTENNA__634__B1 _635_/A _382_/VGND _686_/VPWR sky130_fd_sc_hd__diode_2
XFILLER_23_56 _599_/VGND _685_/VPWR sky130_fd_sc_hd__fill_1
XANTENNA__522__A _668_/Q _582_/VGND PHY_9/VPWR sky130_fd_sc_hd__diode_2
XANTENNA__658__RESET_B _417_/X _381_/VGND _687_/VPWR sky130_fd_sc_hd__diode_2
XANTENNA__432__A _428_/X _388_/VGND _574_/VPWR sky130_fd_sc_hd__diode_2
XFILLER_29_3 _380_/VGND _380_/VPWR sky130_fd_sc_hd__fill_2
XANTENNA__607__A _607_/A _610_/VGND _607_/VPWR sky130_fd_sc_hd__diode_2
XANTENNA__699__D _342_/X _388_/VGND _574_/VPWR sky130_fd_sc_hd__diode_2
XFILLER_18_23 _590_/VGND _591_/VPWR sky130_fd_sc_hd__fill_2
XFILLER_34_11 _596_/VGND _596_/VPWR sky130_fd_sc_hd__fill_2
XFILLER_11_223 _390_/VGND _679_/VPWR sky130_fd_sc_hd__fill_2
XANTENNA__517__A _517_/A _571_/VGND _679_/VPWR sky130_fd_sc_hd__diode_2
XANTENNA__692__CLK _692_/CLK _607_/VGND _607_/VPWR sky130_fd_sc_hd__diode_2
XFILLER_7_249 _388_/VGND _574_/VPWR sky130_fd_sc_hd__decap_4
XFILLER_11_245 _390_/VGND _679_/VPWR sky130_fd_sc_hd__decap_8
XANTENNA__427__A _423_/A _382_/VGND _686_/VPWR sky130_fd_sc_hd__diode_2
XFILLER_37_131 _595_/VGND _600_/VPWR sky130_fd_sc_hd__fill_2
XFILLER_37_120 _595_/VGND _600_/VPWR sky130_fd_sc_hd__fill_2
XFILLER_37_175 _595_/VGND _600_/VPWR sky130_fd_sc_hd__fill_2
XANTENNA__337__A _337_/A _575_/VGND _576_/VPWR sky130_fd_sc_hd__diode_2
XFILLER_29_44 _380_/VGND _380_/VPWR sky130_fd_sc_hd__decap_12
XFILLER_29_33 _380_/VGND _380_/VPWR sky130_fd_sc_hd__fill_2
XFILLER_29_11 _380_/VGND _380_/VPWR sky130_fd_sc_hd__fill_2
X_660_ _505_/X _660_/Q _414_/X _659_/CLK _600_/VGND _600_/VPWR sky130_fd_sc_hd__dfrtp_4
XFILLER_28_186 _380_/VGND _594_/VPWR sky130_fd_sc_hd__fill_2
X_591_ _585_/Y _586_/Y _592_/A _590_/X _591_/X _590_/VGND _591_/VPWR sky130_fd_sc_hd__a2bb2o_4
XFILLER_3_230 PHY_7/VGND PHY_9/VPWR sky130_fd_sc_hd__fill_2
XFILLER_10_90 _390_/VGND _576_/VPWR sky130_fd_sc_hd__fill_2
XANTENNA__673__RESET_B _398_/X _596_/VGND _604_/VPWR sky130_fd_sc_hd__diode_2
XANTENNA__620__A _617_/X _600_/VGND _610_/VPWR sky130_fd_sc_hd__diode_2
XFILLER_25_123 _593_/VGND _598_/VPWR sky130_fd_sc_hd__fill_2
XFILLER_25_112 _593_/VGND _598_/VPWR sky130_fd_sc_hd__fill_2
XFILLER_40_126 _610_/VGND _610_/VPWR sky130_fd_sc_hd__decap_4
XFILLER_25_189 _593_/VGND _598_/VPWR sky130_fd_sc_hd__fill_2
XFILLER_15_46 _585_/VGND _683_/VPWR sky130_fd_sc_hd__fill_2
XFILLER_15_79 _585_/VGND _683_/VPWR sky130_fd_sc_hd__decap_4
XANTENNA__530__A _544_/A _582_/VGND _579_/VPWR sky130_fd_sc_hd__diode_2
XFILLER_0_244 PHY_1/VGND PHY_1/VPWR sky130_fd_sc_hd__decap_4
XFILLER_0_222 PHY_1/VGND PHY_1/VPWR sky130_fd_sc_hd__fill_2
XFILLER_0_211 PHY_1/VGND PHY_1/VPWR sky130_fd_sc_hd__fill_2
X_574_ _574_/A _577_/A _575_/VGND _574_/VPWR sky130_fd_sc_hd__buf_1
X_643_ _447_/X _643_/Q _434_/X _698_/CLK _585_/VGND _683_/VPWR sky130_fd_sc_hd__dfrtp_4
XFILLER_16_178 _384_/VGND _683_/VPWR sky130_fd_sc_hd__decap_6
XPHY_195 _597_/VGND _598_/VPWR sky130_fd_sc_hd__tapvpwrvgnd_1
XPHY_184 _599_/VGND _685_/VPWR sky130_fd_sc_hd__tapvpwrvgnd_1
XPHY_140 _571_/VGND _679_/VPWR sky130_fd_sc_hd__tapvpwrvgnd_1
XPHY_151 _585_/VGND _683_/VPWR sky130_fd_sc_hd__tapvpwrvgnd_1
XPHY_162 _590_/VGND _591_/VPWR sky130_fd_sc_hd__tapvpwrvgnd_1
XPHY_173 _382_/VGND _586_/VPWR sky130_fd_sc_hd__tapvpwrvgnd_1
XANTENNA__440__A _479_/A _390_/VGND _679_/VPWR sky130_fd_sc_hd__diode_2
XFILLER_11_3 _390_/VGND _679_/VPWR sky130_fd_sc_hd__fill_2
XANTENNA__615__A _615_/A _596_/VGND _596_/VPWR sky130_fd_sc_hd__diode_2
XFILLER_22_148 _599_/VGND _686_/VPWR sky130_fd_sc_hd__decap_4
XFILLER_7_80 _388_/VGND _574_/VPWR sky130_fd_sc_hd__decap_4
XANTENNA__350__A _350_/A PHY_1/VGND PHY_5/VPWR sky130_fd_sc_hd__diode_2
XFILLER_26_45 _597_/VGND _598_/VPWR sky130_fd_sc_hd__decap_4
XFILLER_13_115 _571_/VGND _585_/VPWR sky130_fd_sc_hd__decap_3
XFILLER_42_88 _607_/VGND _607_/VPWR sky130_fd_sc_hd__decap_4
XFILLER_42_44 _607_/VGND _607_/VPWR sky130_fd_sc_hd__decap_8
XFILLER_9_119 _575_/VGND _576_/VPWR sky130_fd_sc_hd__decap_3
X_488_ _487_/X _488_/X _595_/VGND _604_/VPWR sky130_fd_sc_hd__buf_1
X_557_ _675_/Q _557_/Y _381_/VGND _687_/VPWR sky130_fd_sc_hd__inv_8
X_626_ _621_/Y _622_/Y _693_/Q _622_/A _628_/B _597_/VGND _594_/VPWR sky130_fd_sc_hd__o22a_4
XANTENNA__435__A _366_/A PHY_1/VGND PHY_1/VPWR sky130_fd_sc_hd__diode_2
XANTENNA__489__A1 _485_/Y _596_/VGND _596_/VPWR sky130_fd_sc_hd__diode_2
XANTENNA__489__B2 _486_/A _601_/VGND _687_/VPWR sky130_fd_sc_hd__diode_2
XFILLER_35_240 _596_/VGND _604_/VPWR sky130_fd_sc_hd__decap_4
XANTENNA__345__A _704_/Q PHY_7/VGND PHY_9/VPWR sky130_fd_sc_hd__diode_2
XFILLER_12_36 _571_/VGND _679_/VPWR sky130_fd_sc_hd__fill_2
XFILLER_12_58 _571_/VGND _679_/VPWR sky130_fd_sc_hd__fill_2
XANTENNA__649__CLK _663_/CLK _590_/VGND _586_/VPWR sky130_fd_sc_hd__diode_2
XFILLER_37_99 _595_/VGND _600_/VPWR sky130_fd_sc_hd__fill_2
X_342_ _337_/Y _338_/Y _340_/X _343_/B _342_/X _575_/VGND _576_/VPWR sky130_fd_sc_hd__a2bb2o_4
X_411_ _414_/A _411_/X _382_/VGND _686_/VPWR sky130_fd_sc_hd__buf_1
XFILLER_5_177 _582_/VGND _579_/VPWR sky130_fd_sc_hd__fill_2
X_609_ _616_/A x[23] _610_/A _600_/VGND _600_/VPWR sky130_fd_sc_hd__and2_4
XFILLER_4_81 _582_/VGND PHY_9/VPWR sky130_fd_sc_hd__decap_8
XANTENNA__634__B2 _635_/B _590_/VGND _591_/VPWR sky130_fd_sc_hd__diode_2
XFILLER_23_243 _599_/VGND _685_/VPWR sky130_fd_sc_hd__fill_1
XFILLER_2_169 PHY_7/VGND PHY_5/VPWR sky130_fd_sc_hd__decap_4
XFILLER_2_136 PHY_7/VGND PHY_5/VPWR sky130_fd_sc_hd__decap_4
XFILLER_9_37 _575_/VGND _576_/VPWR sky130_fd_sc_hd__decap_4
XFILLER_9_48 _575_/VGND _576_/VPWR sky130_fd_sc_hd__fill_2
XFILLER_9_59 _575_/VGND _576_/VPWR sky130_fd_sc_hd__fill_2
XFILLER_14_232 _585_/VGND _585_/VPWR sky130_fd_sc_hd__decap_4
XANTENNA__561__B1 _675_/Q _381_/VGND _687_/VPWR sky130_fd_sc_hd__diode_2
XANTENNA__698__RESET_B _367_/X _590_/VGND _586_/VPWR sky130_fd_sc_hd__diode_2
XANTENNA__623__A y PHY_7/VGND PHY_9/VPWR sky130_fd_sc_hd__diode_2
XFILLER_20_213 _382_/VGND _586_/VPWR sky130_fd_sc_hd__fill_1
XFILLER_18_13 _590_/VGND _591_/VPWR sky130_fd_sc_hd__fill_2
XFILLER_18_68 _590_/VGND _591_/VPWR sky130_fd_sc_hd__decap_4
XFILLER_34_78 _596_/VGND _596_/VPWR sky130_fd_sc_hd__decap_6
XFILLER_34_23 _596_/VGND _596_/VPWR sky130_fd_sc_hd__fill_2
XANTENNA__533__A1_N _528_/Y _390_/VGND _576_/VPWR sky130_fd_sc_hd__diode_2
XFILLER_41_3 _610_/VGND _607_/VPWR sky130_fd_sc_hd__decap_12
XFILLER_6_250 _388_/VGND _579_/VPWR sky130_fd_sc_hd__decap_3
XFILLER_1_82 PHY_1/VGND PHY_5/VPWR sky130_fd_sc_hd__fill_2
XANTENNA__525__B1 _665_/Q _388_/VGND _579_/VPWR sky130_fd_sc_hd__diode_2
XANTENNA__353__A _479_/A _390_/VGND _576_/VPWR sky130_fd_sc_hd__diode_2
XFILLER_29_56 _380_/VGND _380_/VPWR sky130_fd_sc_hd__fill_1
XFILLER_28_154 _380_/VGND _594_/VPWR sky130_fd_sc_hd__decap_3
XANTENNA__528__A _528_/A _585_/VGND _683_/VPWR sky130_fd_sc_hd__diode_2
X_590_ _585_/Y _586_/Y _683_/Q _686_/Q _590_/X _590_/VGND _586_/VPWR sky130_fd_sc_hd__o22a_4
XFILLER_3_242 PHY_7/VGND PHY_9/VPWR sky130_fd_sc_hd__fill_2
XFILLER_6_27 _388_/VGND _579_/VPWR sky130_fd_sc_hd__decap_4
XFILLER_34_179 _596_/VGND _596_/VPWR sky130_fd_sc_hd__decap_8
XANTENNA__438__A _438_/A PHY_7/VGND PHY_5/VPWR sky130_fd_sc_hd__diode_2
XANTENNA__642__RESET_B _435_/X PHY_1/VGND PHY_5/VPWR sky130_fd_sc_hd__diode_2
XANTENNA_clkbuf_0_clk_A clk _382_/VGND _686_/VPWR sky130_fd_sc_hd__diode_2
XANTENNA__620__B _620_/B _600_/VGND _600_/VPWR sky130_fd_sc_hd__diode_2
XANTENNA__682__CLK _695_/CLK _575_/VGND _574_/VPWR sky130_fd_sc_hd__diode_2
XFILLER_31_13 _601_/VGND _687_/VPWR sky130_fd_sc_hd__fill_2
XFILLER_15_58 _585_/VGND _683_/VPWR sky130_fd_sc_hd__decap_3
XFILLER_31_57 _601_/VGND _687_/VPWR sky130_fd_sc_hd__decap_4
XANTENNA__530__B x[12] _582_/VGND _579_/VPWR sky130_fd_sc_hd__diode_2
X_642_ _642_/D p _435_/X _670_/CLK PHY_7/VGND PHY_5/VPWR sky130_fd_sc_hd__dfrtp_4
XFILLER_31_105 _601_/VGND _687_/VPWR sky130_fd_sc_hd__fill_2
X_573_ _559_/A x[18] _574_/A _582_/VGND _579_/VPWR sky130_fd_sc_hd__and2_4
XPHY_130 _390_/VGND _576_/VPWR sky130_fd_sc_hd__tapvpwrvgnd_1
XPHY_141 _571_/VGND _679_/VPWR sky130_fd_sc_hd__tapvpwrvgnd_1
XPHY_152 _585_/VGND _683_/VPWR sky130_fd_sc_hd__tapvpwrvgnd_1
XPHY_196 _597_/VGND _598_/VPWR sky130_fd_sc_hd__tapvpwrvgnd_1
XPHY_185 _599_/VGND _685_/VPWR sky130_fd_sc_hd__tapvpwrvgnd_1
XPHY_163 _590_/VGND _591_/VPWR sky130_fd_sc_hd__tapvpwrvgnd_1
XPHY_174 _382_/VGND _686_/VPWR sky130_fd_sc_hd__tapvpwrvgnd_1
XFILLER_39_249 _600_/VGND _610_/VPWR sky130_fd_sc_hd__decap_4
XANTENNA__350__B _348_/X PHY_7/VGND PHY_5/VPWR sky130_fd_sc_hd__diode_2
XANTENNA__631__A _624_/A PHY_1/VGND PHY_5/VPWR sky130_fd_sc_hd__diode_2
XFILLER_26_79 _597_/VGND _598_/VPWR sky130_fd_sc_hd__fill_2
XFILLER_26_13 _597_/VGND _598_/VPWR sky130_fd_sc_hd__fill_2
XFILLER_13_138 _571_/VGND _585_/VPWR sky130_fd_sc_hd__decap_3
XFILLER_13_127 _571_/VGND _585_/VPWR sky130_fd_sc_hd__decap_4
XFILLER_42_56 _607_/VGND _607_/VPWR sky130_fd_sc_hd__fill_2
XFILLER_21_160 _382_/VGND _686_/VPWR sky130_fd_sc_hd__fill_2
XFILLER_3_28 PHY_7/VGND PHY_9/VPWR sky130_fd_sc_hd__fill_2
XANTENNA__541__A _541_/A _384_/VGND _591_/VPWR sky130_fd_sc_hd__diode_2
XFILLER_36_219 _595_/VGND _604_/VPWR sky130_fd_sc_hd__fill_1
XFILLER_36_208 _595_/VGND _604_/VPWR sky130_fd_sc_hd__decap_6
X_625_ _625_/A _628_/A _380_/VGND _380_/VPWR sky130_fd_sc_hd__buf_1
X_487_ _508_/A x[6] _487_/X _610_/VGND _607_/VPWR sky130_fd_sc_hd__and2_4
X_556_ _553_/X _554_/X _556_/X _610_/VGND _610_/VPWR sky130_fd_sc_hd__xor2_4
XFILLER_16_90 _384_/VGND _683_/VPWR sky130_fd_sc_hd__fill_2
XANTENNA__489__A2 _486_/Y _381_/VGND _596_/VPWR sky130_fd_sc_hd__diode_2
XFILLER_8_197 _575_/VGND _574_/VPWR sky130_fd_sc_hd__fill_2