* NGSPICE file created from cbx_1__3_.ext - technology: sky130A

* Black-box entry subcircuit for sky130_fd_sc_hd__decap_12 abstract view
.subckt sky130_fd_sc_hd__decap_12 VGND VPWR
.ends

* Black-box entry subcircuit for sky130_fd_sc_hd__dfrbp_1 abstract view
.subckt sky130_fd_sc_hd__dfrbp_1 D Q Q_N RESET_B CLK VGND VPWR
.ends

* Black-box entry subcircuit for sky130_fd_sc_hd__fill_2 abstract view
.subckt sky130_fd_sc_hd__fill_2 VGND VPWR
.ends

* Black-box entry subcircuit for sky130_fd_sc_hd__decap_8 abstract view
.subckt sky130_fd_sc_hd__decap_8 VGND VPWR
.ends

* Black-box entry subcircuit for sky130_fd_sc_hd__diode_2 abstract view
.subckt sky130_fd_sc_hd__diode_2 DIODE VGND VPWR
.ends

* Black-box entry subcircuit for sky130_fd_sc_hd__clkbuf_1 abstract view
.subckt sky130_fd_sc_hd__clkbuf_1 A X VGND VPWR
.ends

* Black-box entry subcircuit for sky130_fd_sc_hd__decap_3 abstract view
.subckt sky130_fd_sc_hd__decap_3 VGND VPWR
.ends

* Black-box entry subcircuit for sky130_fd_sc_hd__decap_4 abstract view
.subckt sky130_fd_sc_hd__decap_4 VGND VPWR
.ends

* Black-box entry subcircuit for sky130_fd_sc_hd__decap_6 abstract view
.subckt sky130_fd_sc_hd__decap_6 VGND VPWR
.ends

* Black-box entry subcircuit for sky130_fd_sc_hd__tapvpwrvgnd_1 abstract view
.subckt sky130_fd_sc_hd__tapvpwrvgnd_1 VGND VPWR
.ends

* Black-box entry subcircuit for sky130_fd_sc_hd__fill_1 abstract view
.subckt sky130_fd_sc_hd__fill_1 VGND VPWR
.ends

* Black-box entry subcircuit for sky130_fd_sc_hd__buf_2 abstract view
.subckt sky130_fd_sc_hd__buf_2 A X VGND VPWR
.ends

* Black-box entry subcircuit for sky130_fd_sc_hd__conb_1 abstract view
.subckt sky130_fd_sc_hd__conb_1 HI LO VGND VPWR
.ends

* Black-box entry subcircuit for sky130_fd_sc_hd__clkbuf_16 abstract view
.subckt sky130_fd_sc_hd__clkbuf_16 A X VGND VPWR
.ends

.subckt cbx_1__3_ chanx_left_in[0] chanx_left_in[1] chanx_left_in[2] chanx_left_in[3]
+ chanx_left_in[4] chanx_left_in[5] chanx_left_in[6] chanx_left_in[7] chanx_left_in[8]
+ chanx_left_out[0] chanx_left_out[1] chanx_left_out[2] chanx_left_out[3] chanx_left_out[4]
+ chanx_left_out[5] chanx_left_out[6] chanx_left_out[7] chanx_left_out[8] top_grid_pin_0_
+ top_grid_pin_2_ top_grid_pin_4_ top_grid_pin_6_ top_grid_pin_8_ top_grid_pin_10_
+ top_grid_pin_12_ top_grid_pin_14_ ccff_tail chanx_right_in[0] chanx_right_in[1]
+ chanx_right_in[2] chanx_right_in[3] chanx_right_in[4] chanx_right_in[5] chanx_right_in[6]
+ chanx_right_in[7] chanx_right_in[8] chanx_right_out[0] chanx_right_out[1] chanx_right_out[2]
+ chanx_right_out[3] chanx_right_out[4] chanx_right_out[5] chanx_right_out[6] chanx_right_out[7]
+ chanx_right_out[8] ccff_head prog_clk pReset bottom_grid_pin_0_ bottom_grid_pin_4_
+ bottom_grid_pin_8_ VPWR VGND
XFILLER_22_166 VGND VPWR sky130_fd_sc_hd__decap_12
Xmem_top_ipin_0.sc_dff_compact_4_.sky130_fd_sc_hd__dfrbp_1 mem_top_ipin_0.sc_dff_compact_3_.sky130_fd_sc_hd__dfrbp_1/Q
+ mem_top_ipin_0.sc_dff_compact_5_.sky130_fd_sc_hd__dfrbp_1/D mem_top_ipin_0.sc_dff_compact_4_.sky130_fd_sc_hd__dfrbp_1/Q_N
+ pReset clkbuf_3_6_0_prog_clk/X VGND VPWR sky130_fd_sc_hd__dfrbp_1
XFILLER_13_177 VGND VPWR sky130_fd_sc_hd__fill_2
Xmem_bottom_ipin_2.sc_dff_compact_5_.sky130_fd_sc_hd__dfrbp_1 mem_bottom_ipin_2.sc_dff_compact_4_.sky130_fd_sc_hd__dfrbp_1/Q
+ mem_bottom_ipin_2.sc_dff_compact_5_.sky130_fd_sc_hd__dfrbp_1/Q mem_bottom_ipin_2.sc_dff_compact_5_.sky130_fd_sc_hd__dfrbp_1/Q_N
+ pReset clkbuf_3_1_0_prog_clk/X VGND VPWR sky130_fd_sc_hd__dfrbp_1
XFILLER_13_100 VGND VPWR sky130_fd_sc_hd__fill_2
XFILLER_9_159 VGND VPWR sky130_fd_sc_hd__decap_8
XFILLER_12_32 VGND VPWR sky130_fd_sc_hd__decap_12
XFILLER_12_21 VGND VPWR sky130_fd_sc_hd__decap_8
XFILLER_10_158 VGND VPWR sky130_fd_sc_hd__decap_12
XFILLER_6_129 VGND VPWR sky130_fd_sc_hd__decap_12
XFILLER_17_291 VGND VPWR sky130_fd_sc_hd__fill_2
XFILLER_5_184 VGND VPWR sky130_fd_sc_hd__decap_12
XFILLER_23_261 VGND VPWR sky130_fd_sc_hd__decap_12
XFILLER_23_75 VGND VPWR sky130_fd_sc_hd__decap_12
Xmem_bottom_ipin_0.sc_dff_compact_0_.sky130_fd_sc_hd__dfrbp_1 ccff_head mem_bottom_ipin_0.sc_dff_compact_0_.sky130_fd_sc_hd__dfrbp_1/Q
+ mem_bottom_ipin_0.sc_dff_compact_0_.sky130_fd_sc_hd__dfrbp_1/Q_N pReset clkbuf_3_7_0_prog_clk/X
+ VGND VPWR sky130_fd_sc_hd__dfrbp_1
XFILLER_15_217 VGND VPWR sky130_fd_sc_hd__fill_2
XFILLER_14_250 VGND VPWR sky130_fd_sc_hd__decap_12
XFILLER_2_154 VGND VPWR sky130_fd_sc_hd__decap_12
XANTENNA_clkbuf_2_1_0_prog_clk_A clkbuf_1_0_0_prog_clk/X VGND VPWR sky130_fd_sc_hd__diode_2
Xclkbuf_3_4_0_prog_clk clkbuf_3_5_0_prog_clk/A clkbuf_3_4_0_prog_clk/X VGND VPWR sky130_fd_sc_hd__clkbuf_1
XANTENNA_mem_bottom_ipin_6.sc_dff_compact_4_.sky130_fd_sc_hd__dfrbp_1_D mem_bottom_ipin_6.sc_dff_compact_3_.sky130_fd_sc_hd__dfrbp_1/Q
+ VGND VPWR sky130_fd_sc_hd__diode_2
XANTENNA_mem_top_ipin_0.sc_dff_compact_2_.sky130_fd_sc_hd__dfrbp_1_D mem_top_ipin_0.sc_dff_compact_1_.sky130_fd_sc_hd__dfrbp_1/Q
+ VGND VPWR sky130_fd_sc_hd__diode_2
XFILLER_11_253 VGND VPWR sky130_fd_sc_hd__decap_3
XFILLER_11_242 VGND VPWR sky130_fd_sc_hd__fill_2
XFILLER_7_257 VGND VPWR sky130_fd_sc_hd__decap_12
XFILLER_20_98 VGND VPWR sky130_fd_sc_hd__decap_4
XFILLER_20_32 VGND VPWR sky130_fd_sc_hd__decap_12
XFILLER_4_227 VGND VPWR sky130_fd_sc_hd__decap_12
XFILLER_22_337 VGND VPWR sky130_fd_sc_hd__decap_12
XFILLER_19_194 VGND VPWR sky130_fd_sc_hd__fill_2
XFILLER_19_150 VGND VPWR sky130_fd_sc_hd__fill_2
XANTENNA_mem_top_ipin_0.sc_dff_compact_5_.sky130_fd_sc_hd__dfrbp_1_CLK clkbuf_3_7_0_prog_clk/X
+ VGND VPWR sky130_fd_sc_hd__diode_2
XFILLER_13_3 VGND VPWR sky130_fd_sc_hd__fill_2
XFILLER_6_56 VGND VPWR sky130_fd_sc_hd__decap_12
XFILLER_15_43 VGND VPWR sky130_fd_sc_hd__decap_6
XFILLER_1_208 VGND VPWR sky130_fd_sc_hd__decap_12
XPHY_181 VGND VPWR sky130_fd_sc_hd__tapvpwrvgnd_1
XPHY_170 VGND VPWR sky130_fd_sc_hd__tapvpwrvgnd_1
XFILLER_16_142 VGND VPWR sky130_fd_sc_hd__fill_2
XFILLER_0_230 VGND VPWR sky130_fd_sc_hd__decap_12
XFILLER_22_178 VGND VPWR sky130_fd_sc_hd__decap_12
XFILLER_22_101 VGND VPWR sky130_fd_sc_hd__fill_2
XANTENNA_mem_bottom_ipin_7.sc_dff_compact_2_.sky130_fd_sc_hd__dfrbp_1_D mem_bottom_ipin_7.sc_dff_compact_2_.sky130_fd_sc_hd__dfrbp_1/D
+ VGND VPWR sky130_fd_sc_hd__diode_2
XFILLER_13_156 VGND VPWR sky130_fd_sc_hd__fill_2
XFILLER_13_123 VGND VPWR sky130_fd_sc_hd__fill_2
XFILLER_5_300 VGND VPWR sky130_fd_sc_hd__decap_4
XANTENNA_mem_top_ipin_1.sc_dff_compact_0_.sky130_fd_sc_hd__dfrbp_1_D mem_top_ipin_0.sc_dff_compact_5_.sky130_fd_sc_hd__dfrbp_1/Q
+ VGND VPWR sky130_fd_sc_hd__diode_2
XFILLER_18_215 VGND VPWR sky130_fd_sc_hd__fill_2
XFILLER_12_88 VGND VPWR sky130_fd_sc_hd__decap_4
XFILLER_12_44 VGND VPWR sky130_fd_sc_hd__decap_12
XANTENNA_mem_top_ipin_0.sc_dff_compact_5_.sky130_fd_sc_hd__dfrbp_1_D mem_top_ipin_0.sc_dff_compact_5_.sky130_fd_sc_hd__dfrbp_1/D
+ VGND VPWR sky130_fd_sc_hd__diode_2
XFILLER_5_196 VGND VPWR sky130_fd_sc_hd__decap_12
XFILLER_23_273 VGND VPWR sky130_fd_sc_hd__decap_6
XFILLER_23_32 VGND VPWR sky130_fd_sc_hd__decap_12
XFILLER_15_229 VGND VPWR sky130_fd_sc_hd__decap_3
XFILLER_23_87 VGND VPWR sky130_fd_sc_hd__decap_6
XFILLER_14_273 VGND VPWR sky130_fd_sc_hd__fill_2
XFILLER_14_262 VGND VPWR sky130_fd_sc_hd__decap_8
XANTENNA_mem_bottom_ipin_1.sc_dff_compact_1_.sky130_fd_sc_hd__dfrbp_1_RESET_B pReset
+ VGND VPWR sky130_fd_sc_hd__diode_2
XFILLER_9_78 VGND VPWR sky130_fd_sc_hd__fill_2
XFILLER_2_166 VGND VPWR sky130_fd_sc_hd__decap_12
XFILLER_20_276 VGND VPWR sky130_fd_sc_hd__fill_2
XANTENNA_mem_bottom_ipin_1.sc_dff_compact_0_.sky130_fd_sc_hd__dfrbp_1_CLK clkbuf_3_7_0_prog_clk/X
+ VGND VPWR sky130_fd_sc_hd__diode_2
XFILLER_18_32 VGND VPWR sky130_fd_sc_hd__decap_12
XFILLER_18_21 VGND VPWR sky130_fd_sc_hd__decap_8
XANTENNA_mem_bottom_ipin_2.sc_dff_compact_1_.sky130_fd_sc_hd__dfrbp_1_CLK clkbuf_3_6_0_prog_clk/X
+ VGND VPWR sky130_fd_sc_hd__diode_2
XANTENNA_mem_bottom_ipin_3.sc_dff_compact_2_.sky130_fd_sc_hd__dfrbp_1_RESET_B pReset
+ VGND VPWR sky130_fd_sc_hd__diode_2
XFILLER_7_269 VGND VPWR sky130_fd_sc_hd__decap_12
XFILLER_19_310 VGND VPWR sky130_fd_sc_hd__decap_12
XANTENNA_mem_bottom_ipin_5.sc_dff_compact_3_.sky130_fd_sc_hd__dfrbp_1_RESET_B pReset
+ VGND VPWR sky130_fd_sc_hd__diode_2
XFILLER_15_7 VGND VPWR sky130_fd_sc_hd__decap_12
XANTENNA_mem_bottom_ipin_3.sc_dff_compact_2_.sky130_fd_sc_hd__dfrbp_1_CLK clkbuf_3_1_0_prog_clk/X
+ VGND VPWR sky130_fd_sc_hd__diode_2
XANTENNA_mem_bottom_ipin_4.sc_dff_compact_3_.sky130_fd_sc_hd__dfrbp_1_CLK clkbuf_3_0_0_prog_clk/X
+ VGND VPWR sky130_fd_sc_hd__diode_2
XFILLER_20_88 VGND VPWR sky130_fd_sc_hd__decap_4
XFILLER_20_44 VGND VPWR sky130_fd_sc_hd__decap_4
XANTENNA_mem_bottom_ipin_5.sc_dff_compact_4_.sky130_fd_sc_hd__dfrbp_1_CLK clkbuf_3_2_0_prog_clk/X
+ VGND VPWR sky130_fd_sc_hd__diode_2
XFILLER_4_239 VGND VPWR sky130_fd_sc_hd__decap_12
XANTENNA_mem_bottom_ipin_7.sc_dff_compact_5_.sky130_fd_sc_hd__dfrbp_1_D mem_bottom_ipin_7.sc_dff_compact_5_.sky130_fd_sc_hd__dfrbp_1/D
+ VGND VPWR sky130_fd_sc_hd__diode_2
XFILLER_19_184 VGND VPWR sky130_fd_sc_hd__fill_2
XANTENNA_mem_bottom_ipin_6.sc_dff_compact_5_.sky130_fd_sc_hd__dfrbp_1_CLK clkbuf_3_3_0_prog_clk/X
+ VGND VPWR sky130_fd_sc_hd__diode_2
XANTENNA_mem_bottom_ipin_7.sc_dff_compact_4_.sky130_fd_sc_hd__dfrbp_1_RESET_B pReset
+ VGND VPWR sky130_fd_sc_hd__diode_2
XFILLER_16_335 VGND VPWR sky130_fd_sc_hd__fill_1
XFILLER_6_13 VGND VPWR sky130_fd_sc_hd__decap_12
XFILLER_6_68 VGND VPWR sky130_fd_sc_hd__decap_12
XFILLER_22_349 VGND VPWR sky130_fd_sc_hd__decap_3
XFILLER_15_55 VGND VPWR sky130_fd_sc_hd__fill_2
XPHY_182 VGND VPWR sky130_fd_sc_hd__tapvpwrvgnd_1
XPHY_171 VGND VPWR sky130_fd_sc_hd__tapvpwrvgnd_1
XPHY_160 VGND VPWR sky130_fd_sc_hd__tapvpwrvgnd_1
XFILLER_16_154 VGND VPWR sky130_fd_sc_hd__decap_3
XFILLER_0_242 VGND VPWR sky130_fd_sc_hd__decap_6
Xmem_bottom_ipin_7.sc_dff_compact_2_.sky130_fd_sc_hd__dfrbp_1 mem_bottom_ipin_7.sc_dff_compact_2_.sky130_fd_sc_hd__dfrbp_1/D
+ mem_bottom_ipin_7.sc_dff_compact_3_.sky130_fd_sc_hd__dfrbp_1/D mem_bottom_ipin_7.sc_dff_compact_2_.sky130_fd_sc_hd__dfrbp_1/Q_N
+ pReset clkbuf_3_3_0_prog_clk/X VGND VPWR sky130_fd_sc_hd__dfrbp_1
XFILLER_13_168 VGND VPWR sky130_fd_sc_hd__fill_2
XFILLER_7_9 VGND VPWR sky130_fd_sc_hd__fill_2
XFILLER_12_190 VGND VPWR sky130_fd_sc_hd__decap_12
Xmem_bottom_ipin_4.sc_dff_compact_3_.sky130_fd_sc_hd__dfrbp_1 mem_bottom_ipin_4.sc_dff_compact_2_.sky130_fd_sc_hd__dfrbp_1/Q
+ mem_bottom_ipin_4.sc_dff_compact_3_.sky130_fd_sc_hd__dfrbp_1/Q mem_bottom_ipin_4.sc_dff_compact_3_.sky130_fd_sc_hd__dfrbp_1/Q_N
+ pReset clkbuf_3_0_0_prog_clk/X VGND VPWR sky130_fd_sc_hd__dfrbp_1
XFILLER_12_56 VGND VPWR sky130_fd_sc_hd__fill_1
XFILLER_10_149 VGND VPWR sky130_fd_sc_hd__decap_4
XFILLER_2_337 VGND VPWR sky130_fd_sc_hd__decap_12
XFILLER_18_238 VGND VPWR sky130_fd_sc_hd__fill_2
Xmem_bottom_ipin_1.sc_dff_compact_4_.sky130_fd_sc_hd__dfrbp_1 mem_bottom_ipin_1.sc_dff_compact_3_.sky130_fd_sc_hd__dfrbp_1/Q
+ mem_bottom_ipin_1.sc_dff_compact_4_.sky130_fd_sc_hd__dfrbp_1/Q mem_bottom_ipin_1.sc_dff_compact_4_.sky130_fd_sc_hd__dfrbp_1/Q_N
+ pReset clkbuf_3_4_0_prog_clk/X VGND VPWR sky130_fd_sc_hd__dfrbp_1
XANTENNA_mem_top_ipin_2.sc_dff_compact_1_.sky130_fd_sc_hd__dfrbp_1_D mem_top_ipin_2.sc_dff_compact_1_.sky130_fd_sc_hd__dfrbp_1/D
+ VGND VPWR sky130_fd_sc_hd__diode_2
XFILLER_23_230 VGND VPWR sky130_fd_sc_hd__decap_12
XFILLER_23_44 VGND VPWR sky130_fd_sc_hd__decap_12
XFILLER_9_13 VGND VPWR sky130_fd_sc_hd__fill_2
XFILLER_2_178 VGND VPWR sky130_fd_sc_hd__decap_12
XFILLER_3_3 VGND VPWR sky130_fd_sc_hd__fill_2
XFILLER_20_266 VGND VPWR sky130_fd_sc_hd__decap_8
XFILLER_20_288 VGND VPWR sky130_fd_sc_hd__fill_2
XFILLER_18_88 VGND VPWR sky130_fd_sc_hd__decap_4
XFILLER_18_44 VGND VPWR sky130_fd_sc_hd__decap_12
XFILLER_19_322 VGND VPWR sky130_fd_sc_hd__decap_12
XANTENNA_clkbuf_1_0_0_prog_clk_A clkbuf_0_prog_clk/X VGND VPWR sky130_fd_sc_hd__diode_2
XFILLER_6_25 VGND VPWR sky130_fd_sc_hd__decap_6
XFILLER_19_141 VGND VPWR sky130_fd_sc_hd__decap_3
XFILLER_21_350 VGND VPWR sky130_fd_sc_hd__fill_2
XFILLER_15_67 VGND VPWR sky130_fd_sc_hd__fill_2
XFILLER_13_306 VGND VPWR sky130_fd_sc_hd__fill_2
XPHY_183 VGND VPWR sky130_fd_sc_hd__tapvpwrvgnd_1
XPHY_172 VGND VPWR sky130_fd_sc_hd__tapvpwrvgnd_1
XPHY_161 VGND VPWR sky130_fd_sc_hd__tapvpwrvgnd_1
XPHY_150 VGND VPWR sky130_fd_sc_hd__tapvpwrvgnd_1
XFILLER_16_199 VGND VPWR sky130_fd_sc_hd__decap_12
XFILLER_16_188 VGND VPWR sky130_fd_sc_hd__fill_1
Xclkbuf_2_1_0_prog_clk clkbuf_1_0_0_prog_clk/X clkbuf_3_3_0_prog_clk/A VGND VPWR sky130_fd_sc_hd__clkbuf_1
XFILLER_13_114 VGND VPWR sky130_fd_sc_hd__decap_4
XFILLER_9_107 VGND VPWR sky130_fd_sc_hd__decap_12
XANTENNA_mem_bottom_ipin_0.sc_dff_compact_1_.sky130_fd_sc_hd__dfrbp_1_RESET_B pReset
+ VGND VPWR sky130_fd_sc_hd__diode_2
XFILLER_18_206 VGND VPWR sky130_fd_sc_hd__decap_8
XFILLER_2_349 VGND VPWR sky130_fd_sc_hd__decap_3
XFILLER_5_110 VGND VPWR sky130_fd_sc_hd__decap_12
XANTENNA_mem_bottom_ipin_2.sc_dff_compact_2_.sky130_fd_sc_hd__dfrbp_1_RESET_B pReset
+ VGND VPWR sky130_fd_sc_hd__diode_2
XFILLER_4_80 VGND VPWR sky130_fd_sc_hd__decap_12
XFILLER_23_242 VGND VPWR sky130_fd_sc_hd__decap_6
XFILLER_23_56 VGND VPWR sky130_fd_sc_hd__decap_6
XANTENNA__12__A chanx_right_in[7] VGND VPWR sky130_fd_sc_hd__diode_2
XANTENNA_mem_bottom_ipin_4.sc_dff_compact_3_.sky130_fd_sc_hd__dfrbp_1_RESET_B pReset
+ VGND VPWR sky130_fd_sc_hd__diode_2
XFILLER_14_286 VGND VPWR sky130_fd_sc_hd__fill_2
XFILLER_18_56 VGND VPWR sky130_fd_sc_hd__decap_4
XANTENNA_mem_bottom_ipin_6.sc_dff_compact_4_.sky130_fd_sc_hd__dfrbp_1_RESET_B pReset
+ VGND VPWR sky130_fd_sc_hd__diode_2
XFILLER_19_334 VGND VPWR sky130_fd_sc_hd__decap_12
XFILLER_19_301 VGND VPWR sky130_fd_sc_hd__decap_4
XFILLER_11_289 VGND VPWR sky130_fd_sc_hd__fill_1
XFILLER_11_245 VGND VPWR sky130_fd_sc_hd__fill_2
Xclkbuf_3_3_0_prog_clk clkbuf_3_3_0_prog_clk/A clkbuf_3_3_0_prog_clk/X VGND VPWR sky130_fd_sc_hd__clkbuf_1
XFILLER_16_337 VGND VPWR sky130_fd_sc_hd__decap_12
XFILLER_16_315 VGND VPWR sky130_fd_sc_hd__decap_12
XFILLER_19_175 VGND VPWR sky130_fd_sc_hd__decap_4
XFILLER_10_90 VGND VPWR sky130_fd_sc_hd__fill_2
XFILLER_3_296 VGND VPWR sky130_fd_sc_hd__fill_2
XANTENNA__20__A chanx_left_in[8] VGND VPWR sky130_fd_sc_hd__diode_2
XPHY_184 VGND VPWR sky130_fd_sc_hd__tapvpwrvgnd_1
XPHY_173 VGND VPWR sky130_fd_sc_hd__tapvpwrvgnd_1
XPHY_162 VGND VPWR sky130_fd_sc_hd__tapvpwrvgnd_1
XPHY_151 VGND VPWR sky130_fd_sc_hd__tapvpwrvgnd_1
XPHY_140 VGND VPWR sky130_fd_sc_hd__tapvpwrvgnd_1
XFILLER_11_3 VGND VPWR sky130_fd_sc_hd__fill_2
XFILLER_8_300 VGND VPWR sky130_fd_sc_hd__decap_12
XFILLER_22_126 VGND VPWR sky130_fd_sc_hd__decap_12
XFILLER_13_104 VGND VPWR sky130_fd_sc_hd__decap_3
XFILLER_13_148 VGND VPWR sky130_fd_sc_hd__decap_8
XFILLER_9_119 VGND VPWR sky130_fd_sc_hd__decap_3
XANTENNA__15__A chanx_right_in[4] VGND VPWR sky130_fd_sc_hd__diode_2
Xmem_bottom_ipin_6.sc_dff_compact_1_.sky130_fd_sc_hd__dfrbp_1 mem_bottom_ipin_6.sc_dff_compact_0_.sky130_fd_sc_hd__dfrbp_1/Q
+ mem_bottom_ipin_6.sc_dff_compact_2_.sky130_fd_sc_hd__dfrbp_1/D mem_bottom_ipin_6.sc_dff_compact_1_.sky130_fd_sc_hd__dfrbp_1/Q_N
+ pReset clkbuf_3_2_0_prog_clk/X VGND VPWR sky130_fd_sc_hd__dfrbp_1
XFILLER_10_118 VGND VPWR sky130_fd_sc_hd__decap_12
XFILLER_17_295 VGND VPWR sky130_fd_sc_hd__fill_2
XFILLER_17_262 VGND VPWR sky130_fd_sc_hd__fill_2
XFILLER_1_350 VGND VPWR sky130_fd_sc_hd__fill_2
Xmem_top_ipin_1.sc_dff_compact_1_.sky130_fd_sc_hd__dfrbp_1 mem_top_ipin_1.sc_dff_compact_0_.sky130_fd_sc_hd__dfrbp_1/Q
+ mem_top_ipin_1.sc_dff_compact_1_.sky130_fd_sc_hd__dfrbp_1/Q mem_top_ipin_1.sc_dff_compact_1_.sky130_fd_sc_hd__dfrbp_1/Q_N
+ pReset clkbuf_3_7_0_prog_clk/X VGND VPWR sky130_fd_sc_hd__dfrbp_1
Xmem_bottom_ipin_3.sc_dff_compact_2_.sky130_fd_sc_hd__dfrbp_1 mem_bottom_ipin_3.sc_dff_compact_1_.sky130_fd_sc_hd__dfrbp_1/Q
+ mem_bottom_ipin_3.sc_dff_compact_3_.sky130_fd_sc_hd__dfrbp_1/D mem_bottom_ipin_3.sc_dff_compact_2_.sky130_fd_sc_hd__dfrbp_1/Q_N
+ pReset clkbuf_3_1_0_prog_clk/X VGND VPWR sky130_fd_sc_hd__dfrbp_1
XFILLER_14_276 VGND VPWR sky130_fd_sc_hd__decap_8
XFILLER_0_28 VGND VPWR sky130_fd_sc_hd__decap_3
XFILLER_20_213 VGND VPWR sky130_fd_sc_hd__fill_1
Xmem_bottom_ipin_0.sc_dff_compact_3_.sky130_fd_sc_hd__dfrbp_1 mem_bottom_ipin_0.sc_dff_compact_2_.sky130_fd_sc_hd__dfrbp_1/Q
+ mem_bottom_ipin_0.sc_dff_compact_3_.sky130_fd_sc_hd__dfrbp_1/Q mem_bottom_ipin_0.sc_dff_compact_3_.sky130_fd_sc_hd__dfrbp_1/Q_N
+ pReset clkbuf_3_5_0_prog_clk/X VGND VPWR sky130_fd_sc_hd__dfrbp_1
XFILLER_19_346 VGND VPWR sky130_fd_sc_hd__decap_6
XANTENNA__23__A chanx_left_in[5] VGND VPWR sky130_fd_sc_hd__diode_2
X_28_ chanx_left_in[0] chanx_right_out[0] VGND VPWR sky130_fd_sc_hd__buf_2
XFILLER_16_349 VGND VPWR sky130_fd_sc_hd__decap_3
XFILLER_16_327 VGND VPWR sky130_fd_sc_hd__decap_8
XANTENNA__18__A chanx_right_in[1] VGND VPWR sky130_fd_sc_hd__diode_2
XFILLER_19_198 VGND VPWR sky130_fd_sc_hd__fill_2
XFILLER_19_121 VGND VPWR sky130_fd_sc_hd__fill_1
XFILLER_20_8 VGND VPWR sky130_fd_sc_hd__decap_6
XFILLER_13_7 VGND VPWR sky130_fd_sc_hd__decap_12
XFILLER_3_220 VGND VPWR sky130_fd_sc_hd__decap_12
XFILLER_21_330 VGND VPWR sky130_fd_sc_hd__decap_12
XPHY_185 VGND VPWR sky130_fd_sc_hd__tapvpwrvgnd_1
XPHY_174 VGND VPWR sky130_fd_sc_hd__tapvpwrvgnd_1
XPHY_163 VGND VPWR sky130_fd_sc_hd__tapvpwrvgnd_1
XPHY_152 VGND VPWR sky130_fd_sc_hd__tapvpwrvgnd_1
XFILLER_16_146 VGND VPWR sky130_fd_sc_hd__decap_3
XFILLER_16_124 VGND VPWR sky130_fd_sc_hd__decap_12
XPHY_141 VGND VPWR sky130_fd_sc_hd__tapvpwrvgnd_1
XPHY_130 VGND VPWR sky130_fd_sc_hd__tapvpwrvgnd_1
XFILLER_8_312 VGND VPWR sky130_fd_sc_hd__decap_12
XFILLER_22_138 VGND VPWR sky130_fd_sc_hd__fill_1
XFILLER_21_182 VGND VPWR sky130_fd_sc_hd__fill_1
XANTENNA_mem_bottom_ipin_1.sc_dff_compact_2_.sky130_fd_sc_hd__dfrbp_1_RESET_B pReset
+ VGND VPWR sky130_fd_sc_hd__diode_2
XFILLER_5_304 VGND VPWR sky130_fd_sc_hd__fill_1
XANTENNA_mem_bottom_ipin_3.sc_dff_compact_3_.sky130_fd_sc_hd__dfrbp_1_RESET_B pReset
+ VGND VPWR sky130_fd_sc_hd__diode_2
XFILLER_12_59 VGND VPWR sky130_fd_sc_hd__fill_2
XFILLER_5_9 VGND VPWR sky130_fd_sc_hd__fill_2
XANTENNA__26__A chanx_left_in[2] VGND VPWR sky130_fd_sc_hd__diode_2
XANTENNA_mem_bottom_ipin_5.sc_dff_compact_4_.sky130_fd_sc_hd__dfrbp_1_RESET_B pReset
+ VGND VPWR sky130_fd_sc_hd__diode_2
XFILLER_5_123 VGND VPWR sky130_fd_sc_hd__decap_12
XFILLER_23_211 VGND VPWR sky130_fd_sc_hd__decap_6
XFILLER_4_93 VGND VPWR sky130_fd_sc_hd__decap_12
XANTENNA_mem_bottom_ipin_7.sc_dff_compact_5_.sky130_fd_sc_hd__dfrbp_1_RESET_B pReset
+ VGND VPWR sky130_fd_sc_hd__diode_2
XFILLER_20_203 VGND VPWR sky130_fd_sc_hd__fill_2
XANTENNA_mem_top_ipin_0.sc_dff_compact_4_.sky130_fd_sc_hd__dfrbp_1_CLK clkbuf_3_6_0_prog_clk/X
+ VGND VPWR sky130_fd_sc_hd__diode_2
XFILLER_9_281 VGND VPWR sky130_fd_sc_hd__decap_12
XANTENNA_clkbuf_3_3_0_prog_clk_A clkbuf_3_3_0_prog_clk/A VGND VPWR sky130_fd_sc_hd__diode_2
XFILLER_11_258 VGND VPWR sky130_fd_sc_hd__fill_2
XFILLER_11_214 VGND VPWR sky130_fd_sc_hd__fill_2
XFILLER_1_3 VGND VPWR sky130_fd_sc_hd__decap_12
X_27_ chanx_left_in[1] chanx_right_out[1] VGND VPWR sky130_fd_sc_hd__buf_2
XFILLER_6_251 VGND VPWR sky130_fd_sc_hd__decap_12
XFILLER_20_48 VGND VPWR sky130_fd_sc_hd__fill_1
XFILLER_19_188 VGND VPWR sky130_fd_sc_hd__decap_4
XFILLER_19_100 VGND VPWR sky130_fd_sc_hd__decap_6
XANTENNA_mem_bottom_ipin_0.sc_dff_compact_0_.sky130_fd_sc_hd__dfrbp_1_D ccff_head
+ VGND VPWR sky130_fd_sc_hd__diode_2
XFILLER_3_232 VGND VPWR sky130_fd_sc_hd__decap_12
XFILLER_3_287 VGND VPWR sky130_fd_sc_hd__fill_1
XFILLER_21_342 VGND VPWR sky130_fd_sc_hd__decap_8
XFILLER_15_59 VGND VPWR sky130_fd_sc_hd__fill_2
XPHY_186 VGND VPWR sky130_fd_sc_hd__tapvpwrvgnd_1
XPHY_175 VGND VPWR sky130_fd_sc_hd__tapvpwrvgnd_1
XPHY_164 VGND VPWR sky130_fd_sc_hd__tapvpwrvgnd_1
XPHY_153 VGND VPWR sky130_fd_sc_hd__tapvpwrvgnd_1
XFILLER_16_136 VGND VPWR sky130_fd_sc_hd__decap_3
XPHY_142 VGND VPWR sky130_fd_sc_hd__tapvpwrvgnd_1
XPHY_131 VGND VPWR sky130_fd_sc_hd__tapvpwrvgnd_1
XPHY_120 VGND VPWR sky130_fd_sc_hd__tapvpwrvgnd_1
XFILLER_8_324 VGND VPWR sky130_fd_sc_hd__decap_12
XPHY_0 VGND VPWR sky130_fd_sc_hd__decap_3
Xmem_bottom_ipin_7.sc_dff_compact_5_.sky130_fd_sc_hd__dfrbp_1 mem_bottom_ipin_7.sc_dff_compact_5_.sky130_fd_sc_hd__dfrbp_1/D
+ mem_top_ipin_0.sc_dff_compact_0_.sky130_fd_sc_hd__dfrbp_1/D mem_bottom_ipin_7.sc_dff_compact_5_.sky130_fd_sc_hd__dfrbp_1/Q_N
+ pReset clkbuf_3_6_0_prog_clk/X VGND VPWR sky130_fd_sc_hd__dfrbp_1
XFILLER_12_183 VGND VPWR sky130_fd_sc_hd__fill_1
XFILLER_8_198 VGND VPWR sky130_fd_sc_hd__decap_4
XFILLER_8_154 VGND VPWR sky130_fd_sc_hd__decap_12
XANTENNA_mem_bottom_ipin_2.sc_dff_compact_0_.sky130_fd_sc_hd__dfrbp_1_CLK clkbuf_3_4_0_prog_clk/X
+ VGND VPWR sky130_fd_sc_hd__diode_2
XFILLER_2_308 VGND VPWR sky130_fd_sc_hd__decap_12
XANTENNA_mem_bottom_ipin_3.sc_dff_compact_1_.sky130_fd_sc_hd__dfrbp_1_CLK clkbuf_3_3_0_prog_clk/X
+ VGND VPWR sky130_fd_sc_hd__diode_2
Xclkbuf_2_0_0_prog_clk clkbuf_1_0_0_prog_clk/X clkbuf_2_0_0_prog_clk/X VGND VPWR sky130_fd_sc_hd__clkbuf_1
XFILLER_1_330 VGND VPWR sky130_fd_sc_hd__decap_12
XFILLER_5_135 VGND VPWR sky130_fd_sc_hd__decap_12
XFILLER_23_15 VGND VPWR sky130_fd_sc_hd__decap_12
XANTENNA_mem_bottom_ipin_5.sc_dff_compact_3_.sky130_fd_sc_hd__dfrbp_1_CLK clkbuf_3_2_0_prog_clk/X
+ VGND VPWR sky130_fd_sc_hd__diode_2
XANTENNA_mem_bottom_ipin_4.sc_dff_compact_2_.sky130_fd_sc_hd__dfrbp_1_CLK clkbuf_3_0_0_prog_clk/X
+ VGND VPWR sky130_fd_sc_hd__diode_2
XFILLER_4_190 VGND VPWR sky130_fd_sc_hd__decap_12
XANTENNA_mem_bottom_ipin_6.sc_dff_compact_4_.sky130_fd_sc_hd__dfrbp_1_CLK clkbuf_3_2_0_prog_clk/X
+ VGND VPWR sky130_fd_sc_hd__diode_2
Xmem_bottom_ipin_5.sc_dff_compact_0_.sky130_fd_sc_hd__dfrbp_1 mem_bottom_ipin_5.sc_dff_compact_0_.sky130_fd_sc_hd__dfrbp_1/D
+ mem_bottom_ipin_5.sc_dff_compact_0_.sky130_fd_sc_hd__dfrbp_1/Q mem_bottom_ipin_5.sc_dff_compact_0_.sky130_fd_sc_hd__dfrbp_1/Q_N
+ pReset clkbuf_3_2_0_prog_clk/X VGND VPWR sky130_fd_sc_hd__dfrbp_1
XFILLER_14_212 VGND VPWR sky130_fd_sc_hd__fill_2
XFILLER_9_17 VGND VPWR sky130_fd_sc_hd__decap_12
XFILLER_2_105 VGND VPWR sky130_fd_sc_hd__decap_12
XFILLER_3_7 VGND VPWR sky130_fd_sc_hd__decap_12
XFILLER_20_215 VGND VPWR sky130_fd_sc_hd__decap_12
XANTENNA_mem_bottom_ipin_7.sc_dff_compact_5_.sky130_fd_sc_hd__dfrbp_1_CLK clkbuf_3_6_0_prog_clk/X
+ VGND VPWR sky130_fd_sc_hd__diode_2
XANTENNA_mem_bottom_ipin_0.sc_dff_compact_3_.sky130_fd_sc_hd__dfrbp_1_D mem_bottom_ipin_0.sc_dff_compact_2_.sky130_fd_sc_hd__dfrbp_1/Q
+ VGND VPWR sky130_fd_sc_hd__diode_2
XFILLER_9_293 VGND VPWR sky130_fd_sc_hd__decap_12
XFILLER_1_171 VGND VPWR sky130_fd_sc_hd__decap_12
Xmem_bottom_ipin_2.sc_dff_compact_1_.sky130_fd_sc_hd__dfrbp_1 mem_bottom_ipin_2.sc_dff_compact_0_.sky130_fd_sc_hd__dfrbp_1/Q
+ mem_bottom_ipin_2.sc_dff_compact_1_.sky130_fd_sc_hd__dfrbp_1/Q mem_bottom_ipin_2.sc_dff_compact_1_.sky130_fd_sc_hd__dfrbp_1/Q_N
+ pReset clkbuf_3_6_0_prog_clk/X VGND VPWR sky130_fd_sc_hd__dfrbp_1
XFILLER_7_219 VGND VPWR sky130_fd_sc_hd__decap_12
Xmem_top_ipin_0.sc_dff_compact_0_.sky130_fd_sc_hd__dfrbp_1 mem_top_ipin_0.sc_dff_compact_0_.sky130_fd_sc_hd__dfrbp_1/D
+ mem_top_ipin_0.sc_dff_compact_1_.sky130_fd_sc_hd__dfrbp_1/D mem_top_ipin_0.sc_dff_compact_0_.sky130_fd_sc_hd__dfrbp_1/Q_N
+ pReset clkbuf_3_6_0_prog_clk/X VGND VPWR sky130_fd_sc_hd__dfrbp_1
XFILLER_6_263 VGND VPWR sky130_fd_sc_hd__decap_12
XFILLER_6_296 VGND VPWR sky130_fd_sc_hd__decap_12
XFILLER_1_62 VGND VPWR sky130_fd_sc_hd__decap_12
XFILLER_1_51 VGND VPWR sky130_fd_sc_hd__decap_8
X_26_ chanx_left_in[2] chanx_right_out[2] VGND VPWR sky130_fd_sc_hd__buf_2
XFILLER_19_123 VGND VPWR sky130_fd_sc_hd__decap_3
XFILLER_10_93 VGND VPWR sky130_fd_sc_hd__fill_2
XFILLER_10_82 VGND VPWR sky130_fd_sc_hd__decap_8
XFILLER_10_60 VGND VPWR sky130_fd_sc_hd__fill_1
X_09_ _09_/HI top_grid_pin_2_ VGND VPWR sky130_fd_sc_hd__conb_1
XFILLER_15_351 VGND VPWR sky130_fd_sc_hd__fill_1
XANTENNA_mem_bottom_ipin_0.sc_dff_compact_2_.sky130_fd_sc_hd__dfrbp_1_RESET_B pReset
+ VGND VPWR sky130_fd_sc_hd__diode_2
XPHY_187 VGND VPWR sky130_fd_sc_hd__tapvpwrvgnd_1
XPHY_176 VGND VPWR sky130_fd_sc_hd__tapvpwrvgnd_1
XPHY_165 VGND VPWR sky130_fd_sc_hd__tapvpwrvgnd_1
XPHY_154 VGND VPWR sky130_fd_sc_hd__tapvpwrvgnd_1
XPHY_143 VGND VPWR sky130_fd_sc_hd__tapvpwrvgnd_1
XFILLER_16_159 VGND VPWR sky130_fd_sc_hd__fill_2
XPHY_132 VGND VPWR sky130_fd_sc_hd__tapvpwrvgnd_1
XPHY_121 VGND VPWR sky130_fd_sc_hd__tapvpwrvgnd_1
XPHY_110 VGND VPWR sky130_fd_sc_hd__tapvpwrvgnd_1
XFILLER_21_81 VGND VPWR sky130_fd_sc_hd__fill_2
XFILLER_15_181 VGND VPWR sky130_fd_sc_hd__fill_2
XANTENNA_mem_bottom_ipin_1.sc_dff_compact_1_.sky130_fd_sc_hd__dfrbp_1_D mem_bottom_ipin_1.sc_dff_compact_0_.sky130_fd_sc_hd__dfrbp_1/Q
+ VGND VPWR sky130_fd_sc_hd__diode_2
XANTENNA_mem_bottom_ipin_2.sc_dff_compact_3_.sky130_fd_sc_hd__dfrbp_1_RESET_B pReset
+ VGND VPWR sky130_fd_sc_hd__diode_2
XPHY_1 VGND VPWR sky130_fd_sc_hd__decap_3
XFILLER_21_184 VGND VPWR sky130_fd_sc_hd__decap_12
XFILLER_21_162 VGND VPWR sky130_fd_sc_hd__decap_12
Xclkbuf_3_2_0_prog_clk clkbuf_3_3_0_prog_clk/A clkbuf_3_2_0_prog_clk/X VGND VPWR sky130_fd_sc_hd__clkbuf_1
XANTENNA_mem_bottom_ipin_4.sc_dff_compact_4_.sky130_fd_sc_hd__dfrbp_1_RESET_B pReset
+ VGND VPWR sky130_fd_sc_hd__diode_2
XFILLER_5_306 VGND VPWR sky130_fd_sc_hd__decap_12
XFILLER_8_166 VGND VPWR sky130_fd_sc_hd__decap_12
XFILLER_3_19 VGND VPWR sky130_fd_sc_hd__decap_12
XANTENNA_mem_bottom_ipin_6.sc_dff_compact_5_.sky130_fd_sc_hd__dfrbp_1_RESET_B pReset
+ VGND VPWR sky130_fd_sc_hd__diode_2
XFILLER_1_342 VGND VPWR sky130_fd_sc_hd__decap_8
XFILLER_5_147 VGND VPWR sky130_fd_sc_hd__decap_12
XFILLER_17_287 VGND VPWR sky130_fd_sc_hd__fill_2
XFILLER_17_243 VGND VPWR sky130_fd_sc_hd__fill_1
XFILLER_23_27 VGND VPWR sky130_fd_sc_hd__decap_4
XFILLER_9_29 VGND VPWR sky130_fd_sc_hd__decap_12
XFILLER_2_117 VGND VPWR sky130_fd_sc_hd__decap_12
XFILLER_20_227 VGND VPWR sky130_fd_sc_hd__decap_12
XFILLER_13_71 VGND VPWR sky130_fd_sc_hd__fill_2
XFILLER_11_249 VGND VPWR sky130_fd_sc_hd__fill_2
XFILLER_11_238 VGND VPWR sky130_fd_sc_hd__fill_2
XFILLER_20_17 VGND VPWR sky130_fd_sc_hd__decap_12
XANTENNA_mem_bottom_ipin_1.sc_dff_compact_4_.sky130_fd_sc_hd__dfrbp_1_D mem_bottom_ipin_1.sc_dff_compact_3_.sky130_fd_sc_hd__dfrbp_1/Q
+ VGND VPWR sky130_fd_sc_hd__diode_2
XFILLER_1_74 VGND VPWR sky130_fd_sc_hd__decap_12
X_25_ chanx_left_in[3] chanx_right_out[3] VGND VPWR sky130_fd_sc_hd__buf_2
XFILLER_19_113 VGND VPWR sky130_fd_sc_hd__fill_2
XFILLER_10_72 VGND VPWR sky130_fd_sc_hd__fill_2
XFILLER_3_245 VGND VPWR sky130_fd_sc_hd__decap_12
X_08_ _08_/HI top_grid_pin_14_ VGND VPWR sky130_fd_sc_hd__conb_1
XFILLER_19_146 VGND VPWR sky130_fd_sc_hd__fill_2
XANTENNA_clkbuf_2_2_0_prog_clk_A clkbuf_2_3_0_prog_clk/A VGND VPWR sky130_fd_sc_hd__diode_2
XPHY_100 VGND VPWR sky130_fd_sc_hd__tapvpwrvgnd_1
XPHY_188 VGND VPWR sky130_fd_sc_hd__tapvpwrvgnd_1
XPHY_177 VGND VPWR sky130_fd_sc_hd__tapvpwrvgnd_1
XPHY_166 VGND VPWR sky130_fd_sc_hd__tapvpwrvgnd_1
XPHY_155 VGND VPWR sky130_fd_sc_hd__tapvpwrvgnd_1
XPHY_144 VGND VPWR sky130_fd_sc_hd__tapvpwrvgnd_1
XPHY_133 VGND VPWR sky130_fd_sc_hd__tapvpwrvgnd_1
XPHY_122 VGND VPWR sky130_fd_sc_hd__tapvpwrvgnd_1
XPHY_111 VGND VPWR sky130_fd_sc_hd__tapvpwrvgnd_1
XFILLER_8_337 VGND VPWR sky130_fd_sc_hd__decap_12
XPHY_2 VGND VPWR sky130_fd_sc_hd__decap_3
XFILLER_21_196 VGND VPWR sky130_fd_sc_hd__decap_8
XFILLER_21_174 VGND VPWR sky130_fd_sc_hd__decap_8
XFILLER_7_62 VGND VPWR sky130_fd_sc_hd__decap_12
XFILLER_16_93 VGND VPWR sky130_fd_sc_hd__fill_2
XFILLER_8_178 VGND VPWR sky130_fd_sc_hd__decap_12
XFILLER_5_318 VGND VPWR sky130_fd_sc_hd__decap_12
XFILLER_8_101 VGND VPWR sky130_fd_sc_hd__decap_12
XANTENNA_mem_bottom_ipin_2.sc_dff_compact_2_.sky130_fd_sc_hd__dfrbp_1_D mem_bottom_ipin_2.sc_dff_compact_1_.sky130_fd_sc_hd__dfrbp_1/Q
+ VGND VPWR sky130_fd_sc_hd__diode_2
XFILLER_12_29 VGND VPWR sky130_fd_sc_hd__fill_2
XFILLER_5_159 VGND VPWR sky130_fd_sc_hd__decap_12
Xmem_bottom_ipin_6.sc_dff_compact_4_.sky130_fd_sc_hd__dfrbp_1 mem_bottom_ipin_6.sc_dff_compact_3_.sky130_fd_sc_hd__dfrbp_1/Q
+ mem_bottom_ipin_6.sc_dff_compact_4_.sky130_fd_sc_hd__dfrbp_1/Q mem_bottom_ipin_6.sc_dff_compact_4_.sky130_fd_sc_hd__dfrbp_1/Q_N
+ pReset clkbuf_3_2_0_prog_clk/X VGND VPWR sky130_fd_sc_hd__dfrbp_1
XFILLER_17_299 VGND VPWR sky130_fd_sc_hd__decap_6
XFILLER_17_200 VGND VPWR sky130_fd_sc_hd__decap_3
XFILLER_2_129 VGND VPWR sky130_fd_sc_hd__decap_12
Xmem_bottom_ipin_3.sc_dff_compact_5_.sky130_fd_sc_hd__dfrbp_1 mem_bottom_ipin_3.sc_dff_compact_4_.sky130_fd_sc_hd__dfrbp_1/Q
+ mem_bottom_ipin_4.sc_dff_compact_0_.sky130_fd_sc_hd__dfrbp_1/D mem_bottom_ipin_3.sc_dff_compact_5_.sky130_fd_sc_hd__dfrbp_1/Q_N
+ pReset clkbuf_3_0_0_prog_clk/X VGND VPWR sky130_fd_sc_hd__dfrbp_1
XFILLER_1_184 VGND VPWR sky130_fd_sc_hd__decap_12
XFILLER_20_239 VGND VPWR sky130_fd_sc_hd__decap_4
XFILLER_19_306 VGND VPWR sky130_fd_sc_hd__fill_2
XFILLER_6_210 VGND VPWR sky130_fd_sc_hd__decap_4
XFILLER_20_29 VGND VPWR sky130_fd_sc_hd__fill_2
XFILLER_1_86 VGND VPWR sky130_fd_sc_hd__decap_12
XFILLER_6_276 VGND VPWR sky130_fd_sc_hd__decap_12
X_24_ chanx_left_in[4] chanx_right_out[4] VGND VPWR sky130_fd_sc_hd__buf_2
XANTENNA_mem_bottom_ipin_1.sc_dff_compact_3_.sky130_fd_sc_hd__dfrbp_1_RESET_B pReset
+ VGND VPWR sky130_fd_sc_hd__diode_2
XANTENNA_mem_bottom_ipin_3.sc_dff_compact_0_.sky130_fd_sc_hd__dfrbp_1_D mem_bottom_ipin_2.sc_dff_compact_5_.sky130_fd_sc_hd__dfrbp_1/Q
+ VGND VPWR sky130_fd_sc_hd__diode_2
XFILLER_3_257 VGND VPWR sky130_fd_sc_hd__decap_12
XFILLER_19_71 VGND VPWR sky130_fd_sc_hd__fill_2
XFILLER_15_331 VGND VPWR sky130_fd_sc_hd__decap_12
Xmem_bottom_ipin_1.sc_dff_compact_0_.sky130_fd_sc_hd__dfrbp_1 mem_bottom_ipin_1.sc_dff_compact_0_.sky130_fd_sc_hd__dfrbp_1/D
+ mem_bottom_ipin_1.sc_dff_compact_0_.sky130_fd_sc_hd__dfrbp_1/Q mem_bottom_ipin_1.sc_dff_compact_0_.sky130_fd_sc_hd__dfrbp_1/Q_N
+ pReset clkbuf_3_7_0_prog_clk/X VGND VPWR sky130_fd_sc_hd__dfrbp_1
X_07_ _07_/HI top_grid_pin_12_ VGND VPWR sky130_fd_sc_hd__conb_1
XANTENNA_mem_bottom_ipin_2.sc_dff_compact_5_.sky130_fd_sc_hd__dfrbp_1_D mem_bottom_ipin_2.sc_dff_compact_4_.sky130_fd_sc_hd__dfrbp_1/Q
+ VGND VPWR sky130_fd_sc_hd__diode_2
XFILLER_0_249 VGND VPWR sky130_fd_sc_hd__decap_12