* NGSPICE file created from cbx_1__0_.ext - technology: sky130A

* Black-box entry subcircuit for sky130_fd_sc_hd__dfrbp_1 abstract view
.subckt sky130_fd_sc_hd__dfrbp_1 D Q Q_N RESET_B CLK VGND VPWR
.ends

* Black-box entry subcircuit for sky130_fd_sc_hd__fill_2 abstract view
.subckt sky130_fd_sc_hd__fill_2 VGND VPWR
.ends

* Black-box entry subcircuit for sky130_fd_sc_hd__decap_12 abstract view
.subckt sky130_fd_sc_hd__decap_12 VGND VPWR
.ends

* Black-box entry subcircuit for sky130_fd_sc_hd__diode_2 abstract view
.subckt sky130_fd_sc_hd__diode_2 DIODE VGND VPWR
.ends

* Black-box entry subcircuit for sky130_fd_sc_hd__clkbuf_1 abstract view
.subckt sky130_fd_sc_hd__clkbuf_1 A X VGND VPWR
.ends

* Black-box entry subcircuit for sky130_fd_sc_hd__decap_8 abstract view
.subckt sky130_fd_sc_hd__decap_8 VGND VPWR
.ends

* Black-box entry subcircuit for sky130_fd_sc_hd__decap_4 abstract view
.subckt sky130_fd_sc_hd__decap_4 VGND VPWR
.ends

* Black-box entry subcircuit for sky130_fd_sc_hd__decap_6 abstract view
.subckt sky130_fd_sc_hd__decap_6 VGND VPWR
.ends

* Black-box entry subcircuit for sky130_fd_sc_hd__fill_1 abstract view
.subckt sky130_fd_sc_hd__fill_1 VGND VPWR
.ends

* Black-box entry subcircuit for sky130_fd_sc_hd__decap_3 abstract view
.subckt sky130_fd_sc_hd__decap_3 VGND VPWR
.ends

* Black-box entry subcircuit for sky130_fd_sc_hd__buf_2 abstract view
.subckt sky130_fd_sc_hd__buf_2 A X VGND VPWR
.ends

* Black-box entry subcircuit for sky130_fd_sc_hd__tapvpwrvgnd_1 abstract view
.subckt sky130_fd_sc_hd__tapvpwrvgnd_1 VGND VPWR
.ends

* Black-box entry subcircuit for sky130_fd_sc_hd__conb_1 abstract view
.subckt sky130_fd_sc_hd__conb_1 HI LO VGND VPWR
.ends

* Black-box entry subcircuit for sky130_fd_sc_hd__clkbuf_16 abstract view
.subckt sky130_fd_sc_hd__clkbuf_16 A X VGND VPWR
.ends

.subckt cbx_1__0_ chanx_in_17_ chanx_in_15_ chanx_in_13_ chanx_in_11_ chanx_in_9_
+ chanx_in_7_ chanx_in_5_ chanx_in_3_ chanx_in_1_ chanx_out_16_ chanx_out_14_ chanx_out_12_
+ chanx_out_10_ chanx_out_8_ chanx_out_6_ chanx_out_4_ chanx_out_2_ chanx_out_0_ chanx_out_17_
+ chanx_out_15_ chanx_out_13_ chanx_out_11_ chanx_out_9_ chanx_out_7_ chanx_out_5_
+ chanx_out_3_ chanx_out_1_ chanx_in_16_ chanx_in_14_ chanx_in_12_ chanx_in_10_ chanx_in_8_
+ chanx_in_6_ chanx_in_4_ chanx_in_2_ chanx_in_0_ ccff_head top_grid_pin_2_ top_grid_pin_6_
+ top_grid_pin_14_ prog_clk pReset ccff_tail bottom_grid_pin_0_ bottom_grid_pin_2_
+ bottom_grid_pin_4_ bottom_grid_pin_6_ bottom_grid_pin_8_ bottom_grid_pin_10_ bottom_grid_pin_12_
+ bottom_grid_pin_14_ VPWR VGND
Xmem_top_ipin_0.sc_dff_compact_4_.sky130_fd_sc_hd__dfrbp_1 mem_top_ipin_0.sc_dff_compact_4_.sky130_fd_sc_hd__dfrbp_1/D
+ mem_top_ipin_0.sc_dff_compact_5_.sky130_fd_sc_hd__dfrbp_1/D mem_top_ipin_0.sc_dff_compact_4_.sky130_fd_sc_hd__dfrbp_1/Q_N
+ pReset clkbuf_3_7_0_prog_clk/X VGND VPWR sky130_fd_sc_hd__dfrbp_1
Xmem_bottom_ipin_2.sc_dff_compact_5_.sky130_fd_sc_hd__dfrbp_1 mem_bottom_ipin_2.sc_dff_compact_4_.sky130_fd_sc_hd__dfrbp_1/Q
+ mem_top_ipin_0.sc_dff_compact_0_.sky130_fd_sc_hd__dfrbp_1/D mem_bottom_ipin_2.sc_dff_compact_5_.sky130_fd_sc_hd__dfrbp_1/Q_N
+ pReset clkbuf_3_6_0_prog_clk/X VGND VPWR sky130_fd_sc_hd__dfrbp_1
XFILLER_8_170 VGND VPWR sky130_fd_sc_hd__fill_2
XFILLER_12_32 VGND VPWR sky130_fd_sc_hd__fill_2
XFILLER_10_158 VGND VPWR sky130_fd_sc_hd__fill_2
XFILLER_6_129 VGND VPWR sky130_fd_sc_hd__fill_2
XFILLER_2_313 VGND VPWR sky130_fd_sc_hd__decap_12
XFILLER_5_184 VGND VPWR sky130_fd_sc_hd__decap_12
Xmem_bottom_ipin_0.sc_dff_compact_0_.sky130_fd_sc_hd__dfrbp_1 ccff_head mem_bottom_ipin_0.sc_dff_compact_0_.sky130_fd_sc_hd__dfrbp_1/Q
+ mem_bottom_ipin_0.sc_dff_compact_0_.sky130_fd_sc_hd__dfrbp_1/Q_N pReset clkbuf_3_2_0_prog_clk/X
+ VGND VPWR sky130_fd_sc_hd__dfrbp_1
XFILLER_9_55 VGND VPWR sky130_fd_sc_hd__fill_2
XFILLER_2_154 VGND VPWR sky130_fd_sc_hd__fill_2
XFILLER_2_198 VGND VPWR sky130_fd_sc_hd__decap_12
XANTENNA_clkbuf_2_1_0_prog_clk_A clkbuf_1_0_0_prog_clk/X VGND VPWR sky130_fd_sc_hd__diode_2
Xclkbuf_3_4_0_prog_clk clkbuf_3_5_0_prog_clk/A clkbuf_3_4_0_prog_clk/X VGND VPWR sky130_fd_sc_hd__clkbuf_1
XFILLER_11_297 VGND VPWR sky130_fd_sc_hd__fill_2
XFILLER_11_264 VGND VPWR sky130_fd_sc_hd__fill_2
XFILLER_11_253 VGND VPWR sky130_fd_sc_hd__decap_8
XFILLER_11_242 VGND VPWR sky130_fd_sc_hd__fill_2
XANTENNA_mem_top_ipin_0.sc_dff_compact_2_.sky130_fd_sc_hd__dfrbp_1_D mem_top_ipin_0.sc_dff_compact_1_.sky130_fd_sc_hd__dfrbp_1/Q
+ VGND VPWR sky130_fd_sc_hd__diode_2
XFILLER_7_268 VGND VPWR sky130_fd_sc_hd__fill_2
XFILLER_7_257 VGND VPWR sky130_fd_sc_hd__decap_4
XFILLER_7_235 VGND VPWR sky130_fd_sc_hd__decap_8
XFILLER_7_202 VGND VPWR sky130_fd_sc_hd__fill_2
XANTENNA_mem_top_ipin_0.sc_dff_compact_5_.sky130_fd_sc_hd__dfrbp_1_CLK clkbuf_3_7_0_prog_clk/X
+ VGND VPWR sky130_fd_sc_hd__diode_2
XFILLER_13_3 VGND VPWR sky130_fd_sc_hd__decap_8
XFILLER_6_23 VGND VPWR sky130_fd_sc_hd__fill_2
XFILLER_15_87 VGND VPWR sky130_fd_sc_hd__decap_6
XFILLER_15_32 VGND VPWR sky130_fd_sc_hd__decap_12
XFILLER_0_296 VGND VPWR sky130_fd_sc_hd__decap_12
XFILLER_10_329 VGND VPWR sky130_fd_sc_hd__fill_1
XFILLER_13_178 VGND VPWR sky130_fd_sc_hd__decap_4
XFILLER_13_167 VGND VPWR sky130_fd_sc_hd__fill_1
XFILLER_13_123 VGND VPWR sky130_fd_sc_hd__decap_3
XFILLER_3_24 VGND VPWR sky130_fd_sc_hd__fill_2
XFILLER_3_57 VGND VPWR sky130_fd_sc_hd__decap_4
XFILLER_3_68 VGND VPWR sky130_fd_sc_hd__fill_2
XANTENNA_mem_top_ipin_1.sc_dff_compact_0_.sky130_fd_sc_hd__dfrbp_1_D mem_top_ipin_0.sc_dff_compact_5_.sky130_fd_sc_hd__dfrbp_1/Q
+ VGND VPWR sky130_fd_sc_hd__diode_2
XFILLER_2_325 VGND VPWR sky130_fd_sc_hd__decap_4
XANTENNA_mem_top_ipin_0.sc_dff_compact_5_.sky130_fd_sc_hd__dfrbp_1_D mem_top_ipin_0.sc_dff_compact_5_.sky130_fd_sc_hd__dfrbp_1/D
+ VGND VPWR sky130_fd_sc_hd__diode_2
XFILLER_5_174 VGND VPWR sky130_fd_sc_hd__fill_2
XFILLER_5_196 VGND VPWR sky130_fd_sc_hd__decap_4
XFILLER_15_218 VGND VPWR sky130_fd_sc_hd__decap_12
XANTENNA_mem_bottom_ipin_1.sc_dff_compact_1_.sky130_fd_sc_hd__dfrbp_1_RESET_B pReset
+ VGND VPWR sky130_fd_sc_hd__diode_2
XFILLER_2_144 VGND VPWR sky130_fd_sc_hd__decap_8
XANTENNA_mem_bottom_ipin_1.sc_dff_compact_0_.sky130_fd_sc_hd__dfrbp_1_CLK clkbuf_3_2_0_prog_clk/X
+ VGND VPWR sky130_fd_sc_hd__diode_2
XANTENNA_mem_bottom_ipin_2.sc_dff_compact_1_.sky130_fd_sc_hd__dfrbp_1_CLK clkbuf_3_3_0_prog_clk/X
+ VGND VPWR sky130_fd_sc_hd__diode_2
XFILLER_3_261 VGND VPWR sky130_fd_sc_hd__fill_1
XFILLER_3_272 VGND VPWR sky130_fd_sc_hd__fill_2
XFILLER_15_44 VGND VPWR sky130_fd_sc_hd__decap_12
XANTENNA_mem_top_ipin_1.sc_dff_compact_3_.sky130_fd_sc_hd__dfrbp_1_D mem_top_ipin_1.sc_dff_compact_3_.sky130_fd_sc_hd__dfrbp_1/D
+ VGND VPWR sky130_fd_sc_hd__diode_2
XFILLER_0_231 VGND VPWR sky130_fd_sc_hd__decap_12
Xmem_top_ipin_5.sc_dff_compact_1_.sky130_fd_sc_hd__dfrbp_1 mem_top_ipin_5.sc_dff_compact_0_.sky130_fd_sc_hd__dfrbp_1/Q
+ mem_top_ipin_5.sc_dff_compact_1_.sky130_fd_sc_hd__dfrbp_1/Q mem_top_ipin_5.sc_dff_compact_1_.sky130_fd_sc_hd__dfrbp_1/Q_N
+ pReset clkbuf_3_4_0_prog_clk/X VGND VPWR sky130_fd_sc_hd__dfrbp_1
XFILLER_9_128 VGND VPWR sky130_fd_sc_hd__fill_2
XFILLER_9_106 VGND VPWR sky130_fd_sc_hd__fill_2
Xmem_top_ipin_2.sc_dff_compact_2_.sky130_fd_sc_hd__dfrbp_1 mem_top_ipin_2.sc_dff_compact_1_.sky130_fd_sc_hd__dfrbp_1/Q
+ mem_top_ipin_2.sc_dff_compact_2_.sky130_fd_sc_hd__dfrbp_1/Q mem_top_ipin_2.sc_dff_compact_2_.sky130_fd_sc_hd__dfrbp_1/Q_N
+ pReset clkbuf_3_7_0_prog_clk/X VGND VPWR sky130_fd_sc_hd__dfrbp_1
XFILLER_12_23 VGND VPWR sky130_fd_sc_hd__decap_8
XFILLER_10_138 VGND VPWR sky130_fd_sc_hd__fill_2
XFILLER_10_105 VGND VPWR sky130_fd_sc_hd__fill_2
XANTENNA_mem_top_ipin_4.sc_dff_compact_1_.sky130_fd_sc_hd__dfrbp_1_CLK clkbuf_3_6_0_prog_clk/X
+ VGND VPWR sky130_fd_sc_hd__diode_2
XANTENNA_mem_top_ipin_3.sc_dff_compact_0_.sky130_fd_sc_hd__dfrbp_1_CLK clkbuf_3_5_0_prog_clk/X
+ VGND VPWR sky130_fd_sc_hd__diode_2
XANTENNA_mem_top_ipin_5.sc_dff_compact_2_.sky130_fd_sc_hd__dfrbp_1_CLK clkbuf_3_4_0_prog_clk/X
+ VGND VPWR sky130_fd_sc_hd__diode_2
XANTENNA_mem_top_ipin_2.sc_dff_compact_1_.sky130_fd_sc_hd__dfrbp_1_D mem_top_ipin_2.sc_dff_compact_0_.sky130_fd_sc_hd__dfrbp_1/Q
+ VGND VPWR sky130_fd_sc_hd__diode_2
XFILLER_9_35 VGND VPWR sky130_fd_sc_hd__decap_12
XANTENNA_mem_top_ipin_7.sc_dff_compact_4_.sky130_fd_sc_hd__dfrbp_1_CLK clkbuf_3_0_0_prog_clk/X
+ VGND VPWR sky130_fd_sc_hd__diode_2
XFILLER_0_37 VGND VPWR sky130_fd_sc_hd__fill_2
XFILLER_0_15 VGND VPWR sky130_fd_sc_hd__fill_2
XFILLER_3_3 VGND VPWR sky130_fd_sc_hd__decap_12
XANTENNA_mem_top_ipin_6.sc_dff_compact_3_.sky130_fd_sc_hd__dfrbp_1_CLK clkbuf_3_2_0_prog_clk/X
+ VGND VPWR sky130_fd_sc_hd__diode_2
XFILLER_9_68 VGND VPWR sky130_fd_sc_hd__fill_2
XFILLER_11_211 VGND VPWR sky130_fd_sc_hd__fill_2
XANTENNA_clkbuf_1_0_0_prog_clk_A clkbuf_0_prog_clk/X VGND VPWR sky130_fd_sc_hd__diode_2
XFILLER_1_91 VGND VPWR sky130_fd_sc_hd__fill_2
XANTENNA_mem_top_ipin_7.sc_dff_compact_0_.sky130_fd_sc_hd__dfrbp_1_RESET_B pReset
+ VGND VPWR sky130_fd_sc_hd__diode_2
XFILLER_15_56 VGND VPWR sky130_fd_sc_hd__decap_6
XFILLER_13_306 VGND VPWR sky130_fd_sc_hd__decap_12
XFILLER_0_243 VGND VPWR sky130_fd_sc_hd__decap_4
XFILLER_0_254 VGND VPWR sky130_fd_sc_hd__fill_2
Xclkbuf_2_1_0_prog_clk clkbuf_1_0_0_prog_clk/X clkbuf_3_3_0_prog_clk/A VGND VPWR sky130_fd_sc_hd__clkbuf_1
XFILLER_13_114 VGND VPWR sky130_fd_sc_hd__decap_4
XFILLER_9_118 VGND VPWR sky130_fd_sc_hd__decap_4
XANTENNA_mem_top_ipin_2.sc_dff_compact_4_.sky130_fd_sc_hd__dfrbp_1_D mem_top_ipin_2.sc_dff_compact_3_.sky130_fd_sc_hd__dfrbp_1/Q
+ VGND VPWR sky130_fd_sc_hd__diode_2
XFILLER_12_191 VGND VPWR sky130_fd_sc_hd__decap_12
XFILLER_8_151 VGND VPWR sky130_fd_sc_hd__fill_2
XFILLER_3_15 VGND VPWR sky130_fd_sc_hd__decap_6
XANTENNA_mem_bottom_ipin_0.sc_dff_compact_1_.sky130_fd_sc_hd__dfrbp_1_RESET_B pReset
+ VGND VPWR sky130_fd_sc_hd__diode_2
XFILLER_5_110 VGND VPWR sky130_fd_sc_hd__fill_2
XFILLER_5_154 VGND VPWR sky130_fd_sc_hd__decap_12
XANTENNA_mem_bottom_ipin_2.sc_dff_compact_2_.sky130_fd_sc_hd__dfrbp_1_RESET_B pReset
+ VGND VPWR sky130_fd_sc_hd__diode_2
XANTENNA__12__A chanx_in_10_ VGND VPWR sky130_fd_sc_hd__diode_2
XFILLER_2_179 VGND VPWR sky130_fd_sc_hd__decap_4
XFILLER_9_47 VGND VPWR sky130_fd_sc_hd__decap_6
XFILLER_11_201 VGND VPWR sky130_fd_sc_hd__decap_4
XANTENNA_mem_top_ipin_3.sc_dff_compact_2_.sky130_fd_sc_hd__dfrbp_1_D mem_top_ipin_3.sc_dff_compact_1_.sky130_fd_sc_hd__dfrbp_1/Q
+ VGND VPWR sky130_fd_sc_hd__diode_2
XFILLER_11_245 VGND VPWR sky130_fd_sc_hd__fill_2
XFILLER_4_208 VGND VPWR sky130_fd_sc_hd__fill_2
Xclkbuf_3_3_0_prog_clk clkbuf_3_3_0_prog_clk/A clkbuf_3_3_0_prog_clk/X VGND VPWR sky130_fd_sc_hd__clkbuf_1
XFILLER_10_90 VGND VPWR sky130_fd_sc_hd__fill_2
XFILLER_13_318 VGND VPWR sky130_fd_sc_hd__decap_12
XANTENNA__20__A chanx_in_1_ VGND VPWR sky130_fd_sc_hd__diode_2
XFILLER_0_211 VGND VPWR sky130_fd_sc_hd__fill_2
Xmem_top_ipin_6.sc_dff_compact_5_.sky130_fd_sc_hd__dfrbp_1 mem_top_ipin_6.sc_dff_compact_4_.sky130_fd_sc_hd__dfrbp_1/Q
+ mem_top_ipin_6.sc_dff_compact_5_.sky130_fd_sc_hd__dfrbp_1/Q mem_top_ipin_6.sc_dff_compact_5_.sky130_fd_sc_hd__dfrbp_1/Q_N
+ pReset clkbuf_3_0_0_prog_clk/X VGND VPWR sky130_fd_sc_hd__dfrbp_1
XFILLER_11_3 VGND VPWR sky130_fd_sc_hd__decap_8
XANTENNA_mem_top_ipin_4.sc_dff_compact_0_.sky130_fd_sc_hd__dfrbp_1_D mem_top_ipin_4.sc_dff_compact_0_.sky130_fd_sc_hd__dfrbp_1/D
+ VGND VPWR sky130_fd_sc_hd__diode_2
XANTENNA__15__A chanx_in_13_ VGND VPWR sky130_fd_sc_hd__diode_2
XFILLER_8_174 VGND VPWR sky130_fd_sc_hd__fill_2
XFILLER_12_69 VGND VPWR sky130_fd_sc_hd__decap_12
Xmem_top_ipin_4.sc_dff_compact_0_.sky130_fd_sc_hd__dfrbp_1 mem_top_ipin_4.sc_dff_compact_0_.sky130_fd_sc_hd__dfrbp_1/D
+ mem_top_ipin_4.sc_dff_compact_0_.sky130_fd_sc_hd__dfrbp_1/Q mem_top_ipin_4.sc_dff_compact_0_.sky130_fd_sc_hd__dfrbp_1/Q_N
+ pReset clkbuf_3_7_0_prog_clk/X VGND VPWR sky130_fd_sc_hd__dfrbp_1
XANTENNA_mem_top_ipin_3.sc_dff_compact_5_.sky130_fd_sc_hd__dfrbp_1_D mem_top_ipin_3.sc_dff_compact_5_.sky130_fd_sc_hd__dfrbp_1/D
+ VGND VPWR sky130_fd_sc_hd__diode_2
XFILLER_5_100 VGND VPWR sky130_fd_sc_hd__decap_3
XFILLER_5_166 VGND VPWR sky130_fd_sc_hd__fill_2
Xmem_top_ipin_1.sc_dff_compact_1_.sky130_fd_sc_hd__dfrbp_1 mem_top_ipin_1.sc_dff_compact_1_.sky130_fd_sc_hd__dfrbp_1/D
+ mem_top_ipin_1.sc_dff_compact_1_.sky130_fd_sc_hd__dfrbp_1/Q mem_top_ipin_1.sc_dff_compact_1_.sky130_fd_sc_hd__dfrbp_1/Q_N
+ pReset clkbuf_3_7_0_prog_clk/X VGND VPWR sky130_fd_sc_hd__dfrbp_1
XFILLER_14_276 VGND VPWR sky130_fd_sc_hd__decap_3
XFILLER_14_243 VGND VPWR sky130_fd_sc_hd__fill_1
XFILLER_9_59 VGND VPWR sky130_fd_sc_hd__fill_2
XFILLER_9_15 VGND VPWR sky130_fd_sc_hd__decap_4
Xmem_bottom_ipin_0.sc_dff_compact_3_.sky130_fd_sc_hd__dfrbp_1 mem_bottom_ipin_0.sc_dff_compact_2_.sky130_fd_sc_hd__dfrbp_1/Q
+ mem_bottom_ipin_0.sc_dff_compact_3_.sky130_fd_sc_hd__dfrbp_1/Q mem_bottom_ipin_0.sc_dff_compact_3_.sky130_fd_sc_hd__dfrbp_1/Q_N
+ pReset clkbuf_3_2_0_prog_clk/X VGND VPWR sky130_fd_sc_hd__dfrbp_1
XANTENNA_mem_top_ipin_6.sc_dff_compact_0_.sky130_fd_sc_hd__dfrbp_1_RESET_B pReset
+ VGND VPWR sky130_fd_sc_hd__diode_2
XFILLER_11_268 VGND VPWR sky130_fd_sc_hd__fill_2
XANTENNA__23__A chanx_in_4_ VGND VPWR sky130_fd_sc_hd__diode_2
XFILLER_7_206 VGND VPWR sky130_fd_sc_hd__fill_2
X_28_ chanx_in_9_ chanx_out_9_ VGND VPWR sky130_fd_sc_hd__buf_2
XFILLER_1_60 VGND VPWR sky130_fd_sc_hd__fill_1
XANTENNA_mem_top_ipin_4.sc_dff_compact_3_.sky130_fd_sc_hd__dfrbp_1_D mem_top_ipin_4.sc_dff_compact_2_.sky130_fd_sc_hd__dfrbp_1/Q
+ VGND VPWR sky130_fd_sc_hd__diode_2
XANTENNA__18__A chanx_in_16_ VGND VPWR sky130_fd_sc_hd__diode_2
XFILLER_6_38 VGND VPWR sky130_fd_sc_hd__decap_12
XFILLER_6_27 VGND VPWR sky130_fd_sc_hd__decap_4
XFILLER_3_220 VGND VPWR sky130_fd_sc_hd__fill_2
XFILLER_3_264 VGND VPWR sky130_fd_sc_hd__fill_2
XFILLER_3_297 VGND VPWR sky130_fd_sc_hd__fill_2
XFILLER_0_223 VGND VPWR sky130_fd_sc_hd__fill_2
XFILLER_0_278 VGND VPWR sky130_fd_sc_hd__fill_1
XFILLER_13_149 VGND VPWR sky130_fd_sc_hd__decap_12
XFILLER_3_28 VGND VPWR sky130_fd_sc_hd__fill_2
XANTENNA__26__A chanx_in_7_ VGND VPWR sky130_fd_sc_hd__diode_2
XFILLER_2_329 VGND VPWR sky130_fd_sc_hd__fill_1
XFILLER_5_9 VGND VPWR sky130_fd_sc_hd__decap_8
XANTENNA_mem_top_ipin_5.sc_dff_compact_1_.sky130_fd_sc_hd__dfrbp_1_D mem_top_ipin_5.sc_dff_compact_0_.sky130_fd_sc_hd__dfrbp_1/Q
+ VGND VPWR sky130_fd_sc_hd__diode_2
XFILLER_5_123 VGND VPWR sky130_fd_sc_hd__fill_2
XFILLER_5_178 VGND VPWR sky130_fd_sc_hd__decap_4
XFILLER_4_93 VGND VPWR sky130_fd_sc_hd__fill_2
XFILLER_9_27 VGND VPWR sky130_fd_sc_hd__fill_2
XANTENNA_mem_top_ipin_0.sc_dff_compact_4_.sky130_fd_sc_hd__dfrbp_1_CLK clkbuf_3_7_0_prog_clk/X
+ VGND VPWR sky130_fd_sc_hd__diode_2
XANTENNA_mem_top_ipin_1.sc_dff_compact_5_.sky130_fd_sc_hd__dfrbp_1_CLK clkbuf_3_7_0_prog_clk/X
+ VGND VPWR sky130_fd_sc_hd__diode_2
XFILLER_11_236 VGND VPWR sky130_fd_sc_hd__decap_4
XANTENNA_clkbuf_3_3_0_prog_clk_A clkbuf_3_3_0_prog_clk/A VGND VPWR sky130_fd_sc_hd__diode_2
XFILLER_1_3 VGND VPWR sky130_fd_sc_hd__decap_8
X_27_ chanx_in_8_ chanx_out_8_ VGND VPWR sky130_fd_sc_hd__buf_2
XFILLER_6_273 VGND VPWR sky130_fd_sc_hd__fill_2
XFILLER_6_240 VGND VPWR sky130_fd_sc_hd__decap_12
XANTENNA_mem_bottom_ipin_0.sc_dff_compact_0_.sky130_fd_sc_hd__dfrbp_1_D ccff_head
+ VGND VPWR sky130_fd_sc_hd__diode_2
XFILLER_10_81 VGND VPWR sky130_fd_sc_hd__fill_2
XFILLER_3_232 VGND VPWR sky130_fd_sc_hd__decap_12
XFILLER_15_15 VGND VPWR sky130_fd_sc_hd__decap_12
XPHY_120 VGND VPWR sky130_fd_sc_hd__tapvpwrvgnd_1
XFILLER_15_180 VGND VPWR sky130_fd_sc_hd__decap_6
XANTENNA_mem_top_ipin_5.sc_dff_compact_4_.sky130_fd_sc_hd__dfrbp_1_D mem_top_ipin_5.sc_dff_compact_3_.sky130_fd_sc_hd__dfrbp_1/Q
+ VGND VPWR sky130_fd_sc_hd__diode_2
XFILLER_7_82 VGND VPWR sky130_fd_sc_hd__fill_1
XPHY_0 VGND VPWR sky130_fd_sc_hd__decap_3
XFILLER_12_150 VGND VPWR sky130_fd_sc_hd__decap_3
XFILLER_8_154 VGND VPWR sky130_fd_sc_hd__fill_2
Xmem_top_ipin_5.sc_dff_compact_4_.sky130_fd_sc_hd__dfrbp_1 mem_top_ipin_5.sc_dff_compact_3_.sky130_fd_sc_hd__dfrbp_1/Q
+ mem_top_ipin_5.sc_dff_compact_5_.sky130_fd_sc_hd__dfrbp_1/D mem_top_ipin_5.sc_dff_compact_4_.sky130_fd_sc_hd__dfrbp_1/Q_N
+ pReset clkbuf_3_1_0_prog_clk/X VGND VPWR sky130_fd_sc_hd__dfrbp_1
XFILLER_12_38 VGND VPWR sky130_fd_sc_hd__fill_2
XANTENNA_mem_bottom_ipin_2.sc_dff_compact_0_.sky130_fd_sc_hd__dfrbp_1_CLK clkbuf_3_3_0_prog_clk/X
+ VGND VPWR sky130_fd_sc_hd__diode_2
XANTENNA_mem_top_ipin_5.sc_dff_compact_0_.sky130_fd_sc_hd__dfrbp_1_RESET_B pReset
+ VGND VPWR sky130_fd_sc_hd__diode_2
Xmem_top_ipin_2.sc_dff_compact_5_.sky130_fd_sc_hd__dfrbp_1 mem_top_ipin_2.sc_dff_compact_5_.sky130_fd_sc_hd__dfrbp_1/D
+ mem_top_ipin_2.sc_dff_compact_5_.sky130_fd_sc_hd__dfrbp_1/Q mem_top_ipin_2.sc_dff_compact_5_.sky130_fd_sc_hd__dfrbp_1/Q_N
+ pReset clkbuf_3_5_0_prog_clk/X VGND VPWR sky130_fd_sc_hd__dfrbp_1
Xclkbuf_2_0_0_prog_clk clkbuf_1_0_0_prog_clk/X clkbuf_3_1_0_prog_clk/A VGND VPWR sky130_fd_sc_hd__clkbuf_1
XFILLER_4_72 VGND VPWR sky130_fd_sc_hd__decap_12
XFILLER_14_267 VGND VPWR sky130_fd_sc_hd__decap_8
XFILLER_0_19 VGND VPWR sky130_fd_sc_hd__decap_12
XANTENNA_mem_top_ipin_7.sc_dff_compact_1_.sky130_fd_sc_hd__dfrbp_1_RESET_B pReset
+ VGND VPWR sky130_fd_sc_hd__diode_2
XANTENNA_mem_bottom_ipin_0.sc_dff_compact_3_.sky130_fd_sc_hd__dfrbp_1_D mem_bottom_ipin_0.sc_dff_compact_2_.sky130_fd_sc_hd__dfrbp_1/Q
+ VGND VPWR sky130_fd_sc_hd__diode_2
XANTENNA_mem_top_ipin_6.sc_dff_compact_2_.sky130_fd_sc_hd__dfrbp_1_D mem_top_ipin_6.sc_dff_compact_1_.sky130_fd_sc_hd__dfrbp_1/Q
+ VGND VPWR sky130_fd_sc_hd__diode_2
XFILLER_1_160 VGND VPWR sky130_fd_sc_hd__fill_2
Xmem_bottom_ipin_2.sc_dff_compact_1_.sky130_fd_sc_hd__dfrbp_1 mem_bottom_ipin_2.sc_dff_compact_1_.sky130_fd_sc_hd__dfrbp_1/D
+ mem_bottom_ipin_2.sc_dff_compact_1_.sky130_fd_sc_hd__dfrbp_1/Q mem_bottom_ipin_2.sc_dff_compact_1_.sky130_fd_sc_hd__dfrbp_1/Q_N
+ pReset clkbuf_3_3_0_prog_clk/X VGND VPWR sky130_fd_sc_hd__dfrbp_1
XFILLER_6_252 VGND VPWR sky130_fd_sc_hd__decap_12
Xmem_top_ipin_0.sc_dff_compact_0_.sky130_fd_sc_hd__dfrbp_1 mem_top_ipin_0.sc_dff_compact_0_.sky130_fd_sc_hd__dfrbp_1/D
+ mem_top_ipin_0.sc_dff_compact_1_.sky130_fd_sc_hd__dfrbp_1/D mem_top_ipin_0.sc_dff_compact_0_.sky130_fd_sc_hd__dfrbp_1/Q_N
+ pReset clkbuf_3_5_0_prog_clk/X VGND VPWR sky130_fd_sc_hd__dfrbp_1
X_26_ chanx_in_7_ chanx_out_7_ VGND VPWR sky130_fd_sc_hd__buf_2
XFILLER_1_95 VGND VPWR sky130_fd_sc_hd__decap_3
XFILLER_1_62 VGND VPWR sky130_fd_sc_hd__fill_2
XFILLER_1_40 VGND VPWR sky130_fd_sc_hd__fill_2
XFILLER_10_93 VGND VPWR sky130_fd_sc_hd__decap_8
XFILLER_15_27 VGND VPWR sky130_fd_sc_hd__decap_4
XANTENNA_mem_bottom_ipin_0.sc_dff_compact_2_.sky130_fd_sc_hd__dfrbp_1_RESET_B pReset
+ VGND VPWR sky130_fd_sc_hd__diode_2
X_09_ _09_/HI bottom_grid_pin_0_ VGND VPWR sky130_fd_sc_hd__conb_1
XPHY_121 VGND VPWR sky130_fd_sc_hd__tapvpwrvgnd_1
XPHY_110 VGND VPWR sky130_fd_sc_hd__tapvpwrvgnd_1
XFILLER_8_303 VGND VPWR sky130_fd_sc_hd__decap_12
XFILLER_0_247 VGND VPWR sky130_fd_sc_hd__fill_1
XFILLER_0_258 VGND VPWR sky130_fd_sc_hd__decap_12
XANTENNA_mem_bottom_ipin_1.sc_dff_compact_1_.sky130_fd_sc_hd__dfrbp_1_D mem_bottom_ipin_1.sc_dff_compact_1_.sky130_fd_sc_hd__dfrbp_1/D
+ VGND VPWR sky130_fd_sc_hd__diode_2
XANTENNA_mem_bottom_ipin_2.sc_dff_compact_3_.sky130_fd_sc_hd__dfrbp_1_RESET_B pReset
+ VGND VPWR sky130_fd_sc_hd__diode_2
XANTENNA_mem_top_ipin_4.sc_dff_compact_0_.sky130_fd_sc_hd__dfrbp_1_CLK clkbuf_3_7_0_prog_clk/X
+ VGND VPWR sky130_fd_sc_hd__diode_2
XPHY_1 VGND VPWR sky130_fd_sc_hd__decap_3
XANTENNA_mem_top_ipin_7.sc_dff_compact_0_.sky130_fd_sc_hd__dfrbp_1_D mem_top_ipin_6.sc_dff_compact_5_.sky130_fd_sc_hd__dfrbp_1/Q
+ VGND VPWR sky130_fd_sc_hd__diode_2
XANTENNA_mem_top_ipin_5.sc_dff_compact_1_.sky130_fd_sc_hd__dfrbp_1_CLK clkbuf_3_4_0_prog_clk/X
+ VGND VPWR sky130_fd_sc_hd__diode_2
Xclkbuf_3_2_0_prog_clk clkbuf_3_3_0_prog_clk/A clkbuf_3_2_0_prog_clk/X VGND VPWR sky130_fd_sc_hd__clkbuf_1
XANTENNA_mem_top_ipin_6.sc_dff_compact_2_.sky130_fd_sc_hd__dfrbp_1_CLK clkbuf_3_2_0_prog_clk/X
+ VGND VPWR sky130_fd_sc_hd__diode_2
XFILLER_5_306 VGND VPWR sky130_fd_sc_hd__decap_12
XFILLER_8_199 VGND VPWR sky130_fd_sc_hd__fill_2
XANTENNA_mem_top_ipin_7.sc_dff_compact_3_.sky130_fd_sc_hd__dfrbp_1_CLK clkbuf_3_0_0_prog_clk/X
+ VGND VPWR sky130_fd_sc_hd__diode_2
XFILLER_12_17 VGND VPWR sky130_fd_sc_hd__fill_2
XANTENNA_mem_top_ipin_6.sc_dff_compact_5_.sky130_fd_sc_hd__dfrbp_1_D mem_top_ipin_6.sc_dff_compact_4_.sky130_fd_sc_hd__dfrbp_1/Q
+ VGND VPWR sky130_fd_sc_hd__diode_2
XFILLER_5_114 VGND VPWR sky130_fd_sc_hd__fill_2
XFILLER_4_40 VGND VPWR sky130_fd_sc_hd__fill_1
XFILLER_4_84 VGND VPWR sky130_fd_sc_hd__decap_8
XFILLER_4_191 VGND VPWR sky130_fd_sc_hd__fill_2
XFILLER_14_213 VGND VPWR sky130_fd_sc_hd__fill_1
XFILLER_13_82 VGND VPWR sky130_fd_sc_hd__fill_1
XFILLER_9_261 VGND VPWR sky130_fd_sc_hd__fill_1
XFILLER_11_249 VGND VPWR sky130_fd_sc_hd__fill_2
XFILLER_9_272 VGND VPWR sky130_fd_sc_hd__fill_2
XFILLER_10_260 VGND VPWR sky130_fd_sc_hd__decap_6
XFILLER_6_264 VGND VPWR sky130_fd_sc_hd__decap_3
X_25_ chanx_in_6_ chanx_out_6_ VGND VPWR sky130_fd_sc_hd__buf_2
XFILLER_1_52 VGND VPWR sky130_fd_sc_hd__decap_8
XANTENNA_mem_top_ipin_7.sc_dff_compact_3_.sky130_fd_sc_hd__dfrbp_1_D mem_top_ipin_7.sc_dff_compact_2_.sky130_fd_sc_hd__dfrbp_1/Q
+ VGND VPWR sky130_fd_sc_hd__diode_2
XFILLER_3_245 VGND VPWR sky130_fd_sc_hd__decap_12
XANTENNA_clkbuf_2_2_0_prog_clk_A clkbuf_1_1_0_prog_clk/X VGND VPWR sky130_fd_sc_hd__diode_2
X_08_ _08_/HI bottom_grid_pin_10_ VGND VPWR sky130_fd_sc_hd__conb_1
XPHY_100 VGND VPWR sky130_fd_sc_hd__tapvpwrvgnd_1
XFILLER_0_215 VGND VPWR sky130_fd_sc_hd__fill_2
XPHY_111 VGND VPWR sky130_fd_sc_hd__tapvpwrvgnd_1
XFILLER_8_315 VGND VPWR sky130_fd_sc_hd__decap_12
XPHY_2 VGND VPWR sky130_fd_sc_hd__decap_3
XANTENNA_mem_top_ipin_4.sc_dff_compact_0_.sky130_fd_sc_hd__dfrbp_1_RESET_B pReset
+ VGND VPWR sky130_fd_sc_hd__diode_2
XFILLER_7_62 VGND VPWR sky130_fd_sc_hd__decap_12
XFILLER_8_112 VGND VPWR sky130_fd_sc_hd__fill_2
XFILLER_5_318 VGND VPWR sky130_fd_sc_hd__decap_12
XANTENNA_mem_bottom_ipin_2.sc_dff_compact_2_.sky130_fd_sc_hd__dfrbp_1_D mem_bottom_ipin_2.sc_dff_compact_1_.sky130_fd_sc_hd__dfrbp_1/Q
+ VGND VPWR sky130_fd_sc_hd__diode_2
XANTENNA_mem_top_ipin_6.sc_dff_compact_1_.sky130_fd_sc_hd__dfrbp_1_RESET_B pReset
+ VGND VPWR sky130_fd_sc_hd__diode_2
Xmem_top_ipin_7.sc_dff_compact_2_.sky130_fd_sc_hd__dfrbp_1 mem_top_ipin_7.sc_dff_compact_1_.sky130_fd_sc_hd__dfrbp_1/Q
+ mem_top_ipin_7.sc_dff_compact_2_.sky130_fd_sc_hd__dfrbp_1/Q mem_top_ipin_7.sc_dff_compact_2_.sky130_fd_sc_hd__dfrbp_1/Q_N
+ pReset clkbuf_3_0_0_prog_clk/X VGND VPWR sky130_fd_sc_hd__dfrbp_1
Xmem_top_ipin_4.sc_dff_compact_3_.sky130_fd_sc_hd__dfrbp_1 mem_top_ipin_4.sc_dff_compact_2_.sky130_fd_sc_hd__dfrbp_1/Q
+ mem_top_ipin_4.sc_dff_compact_3_.sky130_fd_sc_hd__dfrbp_1/Q mem_top_ipin_4.sc_dff_compact_3_.sky130_fd_sc_hd__dfrbp_1/Q_N
+ pReset clkbuf_3_6_0_prog_clk/X VGND VPWR sky130_fd_sc_hd__dfrbp_1
XFILLER_2_118 VGND VPWR sky130_fd_sc_hd__decap_12
XFILLER_14_203 VGND VPWR sky130_fd_sc_hd__fill_2
XFILLER_1_184 VGND VPWR sky130_fd_sc_hd__decap_12
Xmem_top_ipin_1.sc_dff_compact_4_.sky130_fd_sc_hd__dfrbp_1 mem_top_ipin_1.sc_dff_compact_3_.sky130_fd_sc_hd__dfrbp_1/Q
+ mem_top_ipin_1.sc_dff_compact_4_.sky130_fd_sc_hd__dfrbp_1/Q mem_top_ipin_1.sc_dff_compact_4_.sky130_fd_sc_hd__dfrbp_1/Q_N
+ pReset clkbuf_3_7_0_prog_clk/X VGND VPWR sky130_fd_sc_hd__dfrbp_1
XFILLER_6_210 VGND VPWR sky130_fd_sc_hd__decap_4
XFILLER_6_276 VGND VPWR sky130_fd_sc_hd__fill_2
X_24_ chanx_in_5_ chanx_out_5_ VGND VPWR sky130_fd_sc_hd__buf_2
XFILLER_3_224 VGND VPWR sky130_fd_sc_hd__fill_2
XFILLER_3_257 VGND VPWR sky130_fd_sc_hd__decap_4
XFILLER_3_268 VGND VPWR sky130_fd_sc_hd__fill_2
Xmem_bottom_ipin_1.sc_dff_compact_0_.sky130_fd_sc_hd__dfrbp_1 mem_bottom_ipin_1.sc_dff_compact_0_.sky130_fd_sc_hd__dfrbp_1/D
+ mem_bottom_ipin_1.sc_dff_compact_1_.sky130_fd_sc_hd__dfrbp_1/D mem_bottom_ipin_1.sc_dff_compact_0_.sky130_fd_sc_hd__dfrbp_1/Q_N
+ pReset clkbuf_3_2_0_prog_clk/X VGND VPWR sky130_fd_sc_hd__dfrbp_1
XANTENNA_mem_bottom_ipin_2.sc_dff_compact_5_.sky130_fd_sc_hd__dfrbp_1_D mem_bottom_ipin_2.sc_dff_compact_4_.sky130_fd_sc_hd__dfrbp_1/Q
+ VGND VPWR sky130_fd_sc_hd__diode_2
XFILLER_0_227 VGND VPWR sky130_fd_sc_hd__fill_2
XFILLER_0_249 VGND VPWR sky130_fd_sc_hd__fill_2
X_07_ _07_/HI bottom_grid_pin_12_ VGND VPWR sky130_fd_sc_hd__conb_1
XPHY_112 VGND VPWR sky130_fd_sc_hd__tapvpwrvgnd_1
XPHY_101 VGND VPWR sky130_fd_sc_hd__tapvpwrvgnd_1
XFILLER_8_327 VGND VPWR sky130_fd_sc_hd__decap_3
XFILLER_7_85 VGND VPWR sky130_fd_sc_hd__fill_2
XFILLER_7_74 VGND VPWR sky130_fd_sc_hd__decap_8
XPHY_3 VGND VPWR sky130_fd_sc_hd__decap_3
XFILLER_12_142 VGND VPWR sky130_fd_sc_hd__decap_8
XFILLER_4_64 VGND VPWR sky130_fd_sc_hd__decap_6
XFILLER_14_215 VGND VPWR sky130_fd_sc_hd__decap_12
XFILLER_13_62 VGND VPWR sky130_fd_sc_hd__decap_12
XFILLER_1_196 VGND VPWR sky130_fd_sc_hd__decap_6
XANTENNA_mem_bottom_ipin_0.sc_dff_compact_5_.sky130_fd_sc_hd__dfrbp_1_CLK clkbuf_3_2_0_prog_clk/X
+ VGND VPWR sky130_fd_sc_hd__diode_2
XFILLER_11_207 VGND VPWR sky130_fd_sc_hd__fill_2
X_23_ chanx_in_4_ chanx_out_4_ VGND VPWR sky130_fd_sc_hd__buf_2
XFILLER_10_273 VGND VPWR sky130_fd_sc_hd__fill_2
XFILLER_6_200 VGND VPWR sky130_fd_sc_hd__fill_2
XFILLER_1_87 VGND VPWR sky130_fd_sc_hd__fill_2
XANTENNA_mem_top_ipin_3.sc_dff_compact_0_.sky130_fd_sc_hd__dfrbp_1_RESET_B pReset
+ VGND VPWR sky130_fd_sc_hd__diode_2
X_06_ _06_/HI bottom_grid_pin_14_ VGND VPWR sky130_fd_sc_hd__conb_1
XPHY_113 VGND VPWR sky130_fd_sc_hd__tapvpwrvgnd_1
XPHY_102 VGND VPWR sky130_fd_sc_hd__tapvpwrvgnd_1
XANTENNA_mem_top_ipin_5.sc_dff_compact_1_.sky130_fd_sc_hd__dfrbp_1_RESET_B pReset
+ VGND VPWR sky130_fd_sc_hd__diode_2
XFILLER_7_31 VGND VPWR sky130_fd_sc_hd__decap_4
XPHY_4 VGND VPWR sky130_fd_sc_hd__decap_3
XANTENNA_clkbuf_1_1_0_prog_clk_A clkbuf_0_prog_clk/X VGND VPWR sky130_fd_sc_hd__diode_2
XANTENNA_mem_top_ipin_7.sc_dff_compact_2_.sky130_fd_sc_hd__dfrbp_1_RESET_B pReset
+ VGND VPWR sky130_fd_sc_hd__diode_2
XFILLER_12_154 VGND VPWR sky130_fd_sc_hd__fill_2
XANTENNA_mem_top_ipin_0.sc_dff_compact_3_.sky130_fd_sc_hd__dfrbp_1_CLK clkbuf_3_7_0_prog_clk/X
+ VGND VPWR sky130_fd_sc_hd__diode_2
XFILLER_8_158 VGND VPWR sky130_fd_sc_hd__decap_12
XANTENNA_mem_top_ipin_1.sc_dff_compact_4_.sky130_fd_sc_hd__dfrbp_1_CLK clkbuf_3_7_0_prog_clk/X
+ VGND VPWR sky130_fd_sc_hd__diode_2
XANTENNA_mem_top_ipin_2.sc_dff_compact_5_.sky130_fd_sc_hd__dfrbp_1_CLK clkbuf_3_5_0_prog_clk/X
+ VGND VPWR sky130_fd_sc_hd__diode_2
XFILLER_5_106 VGND VPWR sky130_fd_sc_hd__fill_2
XFILLER_5_128 VGND VPWR sky130_fd_sc_hd__decap_3
XFILLER_4_32 VGND VPWR sky130_fd_sc_hd__fill_2
XFILLER_4_161 VGND VPWR sky130_fd_sc_hd__fill_2
Xclkbuf_3_1_0_prog_clk clkbuf_3_1_0_prog_clk/A clkbuf_3_1_0_prog_clk/X VGND VPWR sky130_fd_sc_hd__clkbuf_1
XFILLER_14_227 VGND VPWR sky130_fd_sc_hd__decap_12
XFILLER_13_85 VGND VPWR sky130_fd_sc_hd__fill_2
XFILLER_13_74 VGND VPWR sky130_fd_sc_hd__decap_8
Xmem_top_ipin_6.sc_dff_compact_1_.sky130_fd_sc_hd__dfrbp_1 mem_top_ipin_6.sc_dff_compact_1_.sky130_fd_sc_hd__dfrbp_1/D
+ mem_top_ipin_6.sc_dff_compact_1_.sky130_fd_sc_hd__dfrbp_1/Q mem_top_ipin_6.sc_dff_compact_1_.sky130_fd_sc_hd__dfrbp_1/Q_N
+ pReset clkbuf_3_2_0_prog_clk/X VGND VPWR sky130_fd_sc_hd__dfrbp_1
XFILLER_1_131 VGND VPWR sky130_fd_sc_hd__fill_1
XFILLER_9_297 VGND VPWR sky130_fd_sc_hd__decap_8
XFILLER_9_264 VGND VPWR sky130_fd_sc_hd__fill_2
XFILLER_9_231 VGND VPWR sky130_fd_sc_hd__fill_2
XANTENNA_mem_bottom_ipin_0.sc_dff_compact_3_.sky130_fd_sc_hd__dfrbp_1_RESET_B pReset
+ VGND VPWR sky130_fd_sc_hd__diode_2
XFILLER_1_175 VGND VPWR sky130_fd_sc_hd__decap_8
XFILLER_1_164 VGND VPWR sky130_fd_sc_hd__decap_8
XFILLER_1_153 VGND VPWR sky130_fd_sc_hd__fill_1
Xmem_top_ipin_3.sc_dff_compact_2_.sky130_fd_sc_hd__dfrbp_1 mem_top_ipin_3.sc_dff_compact_1_.sky130_fd_sc_hd__dfrbp_1/Q
+ mem_top_ipin_3.sc_dff_compact_3_.sky130_fd_sc_hd__dfrbp_1/D mem_top_ipin_3.sc_dff_compact_2_.sky130_fd_sc_hd__dfrbp_1/Q_N
+ pReset clkbuf_3_4_0_prog_clk/X VGND VPWR sky130_fd_sc_hd__dfrbp_1
XANTENNA_mem_bottom_ipin_2.sc_dff_compact_4_.sky130_fd_sc_hd__dfrbp_1_RESET_B pReset
+ VGND VPWR sky130_fd_sc_hd__diode_2
X_22_ chanx_in_3_ chanx_out_3_ VGND VPWR sky130_fd_sc_hd__buf_2
XFILLER_1_44 VGND VPWR sky130_fd_sc_hd__fill_2
XFILLER_1_11 VGND VPWR sky130_fd_sc_hd__fill_2
Xmem_bottom_ipin_2.sc_dff_compact_4_.sky130_fd_sc_hd__dfrbp_1 mem_bottom_ipin_2.sc_dff_compact_4_.sky130_fd_sc_hd__dfrbp_1/D
+ mem_bottom_ipin_2.sc_dff_compact_4_.sky130_fd_sc_hd__dfrbp_1/Q mem_bottom_ipin_2.sc_dff_compact_4_.sky130_fd_sc_hd__dfrbp_1/Q_N
+ pReset clkbuf_3_6_0_prog_clk/X VGND VPWR sky130_fd_sc_hd__dfrbp_1
Xmem_top_ipin_0.sc_dff_compact_3_.sky130_fd_sc_hd__dfrbp_1 mem_top_ipin_0.sc_dff_compact_3_.sky130_fd_sc_hd__dfrbp_1/D
+ mem_top_ipin_0.sc_dff_compact_4_.sky130_fd_sc_hd__dfrbp_1/D mem_top_ipin_0.sc_dff_compact_3_.sky130_fd_sc_hd__dfrbp_1/Q_N
+ pReset clkbuf_3_7_0_prog_clk/X VGND VPWR sky130_fd_sc_hd__dfrbp_1
XFILLER_15_311 VGND VPWR sky130_fd_sc_hd__decap_12
XFILLER_10_86 VGND VPWR sky130_fd_sc_hd__fill_2
XFILLER_3_215 VGND VPWR sky130_fd_sc_hd__decap_3
X_05_ _05_/HI bottom_grid_pin_2_ VGND VPWR sky130_fd_sc_hd__conb_1
XPHY_114 VGND VPWR sky130_fd_sc_hd__tapvpwrvgnd_1
XPHY_103 VGND VPWR sky130_fd_sc_hd__tapvpwrvgnd_1
XFILLER_12_303 VGND VPWR sky130_fd_sc_hd__decap_12
XFILLER_0_218 VGND VPWR sky130_fd_sc_hd__decap_3
XFILLER_15_141 VGND VPWR sky130_fd_sc_hd__decap_12
XFILLER_7_43 VGND VPWR sky130_fd_sc_hd__fill_2
XPHY_5 VGND VPWR sky130_fd_sc_hd__decap_3
XFILLER_8_137 VGND VPWR sky130_fd_sc_hd__decap_12
XFILLER_7_170 VGND VPWR sky130_fd_sc_hd__fill_2
XFILLER_5_118 VGND VPWR sky130_fd_sc_hd__decap_4
XFILLER_4_195 VGND VPWR sky130_fd_sc_hd__decap_8
XFILLER_14_239 VGND VPWR sky130_fd_sc_hd__decap_4
XFILLER_13_42 VGND VPWR sky130_fd_sc_hd__fill_2
XFILLER_13_272 VGND VPWR sky130_fd_sc_hd__fill_2
XFILLER_9_243 VGND VPWR sky130_fd_sc_hd__fill_1
XFILLER_1_121 VGND VPWR sky130_fd_sc_hd__fill_1
X_21_ chanx_in_2_ chanx_out_2_ VGND VPWR sky130_fd_sc_hd__buf_2
XANTENNA_mem_top_ipin_2.sc_dff_compact_0_.sky130_fd_sc_hd__dfrbp_1_RESET_B pReset
+ VGND VPWR sky130_fd_sc_hd__diode_2