* NGSPICE file created from sb_0__0_.ext - technology: sky130A

* Black-box entry subcircuit for sky130_fd_sc_hd__fill_2 abstract view
.subckt sky130_fd_sc_hd__fill_2 VGND VPWR
.ends

* Black-box entry subcircuit for sky130_fd_sc_hd__diode_2 abstract view
.subckt sky130_fd_sc_hd__diode_2 DIODE VGND VPWR
.ends

* Black-box entry subcircuit for sky130_fd_sc_hd__decap_3 abstract view
.subckt sky130_fd_sc_hd__decap_3 VGND VPWR
.ends

* Black-box entry subcircuit for sky130_fd_sc_hd__ebufn_1 abstract view
.subckt sky130_fd_sc_hd__ebufn_1 A TE_B Z VGND VPWR
.ends

* Black-box entry subcircuit for sky130_fd_sc_hd__buf_2 abstract view
.subckt sky130_fd_sc_hd__buf_2 A X VGND VPWR
.ends

* Black-box entry subcircuit for sky130_fd_sc_hd__dfrbp_1 abstract view
.subckt sky130_fd_sc_hd__dfrbp_1 D Q Q_N RESET_B CLK VGND VPWR
.ends

* Black-box entry subcircuit for sky130_fd_sc_hd__inv_1 abstract view
.subckt sky130_fd_sc_hd__inv_1 A Y VGND VPWR
.ends

* Black-box entry subcircuit for sky130_fd_sc_hd__fill_1 abstract view
.subckt sky130_fd_sc_hd__fill_1 VGND VPWR
.ends

* Black-box entry subcircuit for sky130_fd_sc_hd__decap_4 abstract view
.subckt sky130_fd_sc_hd__decap_4 VGND VPWR
.ends

* Black-box entry subcircuit for sky130_fd_sc_hd__decap_8 abstract view
.subckt sky130_fd_sc_hd__decap_8 VGND VPWR
.ends

* Black-box entry subcircuit for sky130_fd_sc_hd__decap_12 abstract view
.subckt sky130_fd_sc_hd__decap_12 VGND VPWR
.ends

* Black-box entry subcircuit for sky130_fd_sc_hd__decap_6 abstract view
.subckt sky130_fd_sc_hd__decap_6 VGND VPWR
.ends

* Black-box entry subcircuit for sky130_fd_sc_hd__clkbuf_1 abstract view
.subckt sky130_fd_sc_hd__clkbuf_1 A X VGND VPWR
.ends

* Black-box entry subcircuit for sky130_fd_sc_hd__conb_1 abstract view
.subckt sky130_fd_sc_hd__conb_1 HI LO VGND VPWR
.ends

* Black-box entry subcircuit for sky130_fd_sc_hd__tapvpwrvgnd_1 abstract view
.subckt sky130_fd_sc_hd__tapvpwrvgnd_1 VGND VPWR
.ends

* Black-box entry subcircuit for sky130_fd_sc_hd__clkbuf_16 abstract view
.subckt sky130_fd_sc_hd__clkbuf_16 A X VGND VPWR
.ends

* Black-box entry subcircuit for sky130_fd_sc_hd__inv_8 abstract view
.subckt sky130_fd_sc_hd__inv_8 A Y VGND VPWR
.ends

.subckt sb_0__0_ ccff_head ccff_tail chanx_right_in[0] chanx_right_in[1] chanx_right_in[2]
+ chanx_right_in[3] chanx_right_in[4] chanx_right_in[5] chanx_right_in[6] chanx_right_in[7]
+ chanx_right_in[8] chanx_right_out[0] chanx_right_out[1] chanx_right_out[2] chanx_right_out[3]
+ chanx_right_out[4] chanx_right_out[5] chanx_right_out[6] chanx_right_out[7] chanx_right_out[8]
+ chany_top_in[0] chany_top_in[1] chany_top_in[2] chany_top_in[3] chany_top_in[4]
+ chany_top_in[5] chany_top_in[6] chany_top_in[7] chany_top_in[8] chany_top_out[0]
+ chany_top_out[1] chany_top_out[2] chany_top_out[3] chany_top_out[4] chany_top_out[5]
+ chany_top_out[6] chany_top_out[7] chany_top_out[8] pReset prog_clk right_bottom_grid_pin_11_
+ right_bottom_grid_pin_13_ right_bottom_grid_pin_15_ right_bottom_grid_pin_1_ right_bottom_grid_pin_3_
+ right_bottom_grid_pin_5_ right_bottom_grid_pin_7_ right_bottom_grid_pin_9_ right_top_grid_pin_10_
+ top_left_grid_pin_11_ top_left_grid_pin_13_ top_left_grid_pin_15_ top_left_grid_pin_1_
+ top_left_grid_pin_3_ top_left_grid_pin_5_ top_left_grid_pin_7_ top_left_grid_pin_9_
+ top_right_grid_pin_11_ VPWR VGND
XFILLER_7_7 VGND VPWR sky130_fd_sc_hd__fill_2
XANTENNA_mux_right_track_8.mux_l2_in_0_.TGATE_1_.sky130_fd_sc_hd__ebufn_1_A _36_/HI
+ VGND VPWR sky130_fd_sc_hd__diode_2
XFILLER_9_137 VGND VPWR sky130_fd_sc_hd__fill_2
XFILLER_9_126 VGND VPWR sky130_fd_sc_hd__decap_3
XFILLER_12_87 VGND VPWR sky130_fd_sc_hd__fill_2
XFILLER_12_10 VGND VPWR sky130_fd_sc_hd__fill_2
XFILLER_10_114 VGND VPWR sky130_fd_sc_hd__fill_2
XFILLER_10_103 VGND VPWR sky130_fd_sc_hd__decap_3
XFILLER_5_151 VGND VPWR sky130_fd_sc_hd__fill_2
Xmux_right_track_8.mux_l2_in_0_.TGATE_1_.sky130_fd_sc_hd__ebufn_1 _36_/HI mux_right_track_8.mux_l2_in_0_.TGATE_1_.sky130_fd_sc_hd__ebufn_1/TE_B
+ mux_right_track_8.tap_buf4_0_.sky130_fd_sc_hd__inv_1/A VGND VPWR sky130_fd_sc_hd__ebufn_1
X_49_ _49_/A chany_top_out[6] VGND VPWR sky130_fd_sc_hd__buf_2
XANTENNA_mem_top_track_10.sc_dff_compact_1_.sky130_fd_sc_hd__dfrbp_1_D mem_top_track_10.sc_dff_compact_1_.sky130_fd_sc_hd__dfrbp_1/D
+ VGND VPWR sky130_fd_sc_hd__diode_2
XANTENNA_clkbuf_2_1_0_prog_clk_A clkbuf_2_1_0_prog_clk/A VGND VPWR sky130_fd_sc_hd__diode_2
Xmem_top_track_16.sc_dff_compact_0_.sky130_fd_sc_hd__dfrbp_1 mem_top_track_14.sc_dff_compact_1_.sky130_fd_sc_hd__dfrbp_1/Q
+ mem_top_track_16.sc_dff_compact_1_.sky130_fd_sc_hd__dfrbp_1/D mem_top_track_16.sc_dff_compact_0_.sky130_fd_sc_hd__dfrbp_1/Q_N
+ _19_/Y clkbuf_2_0_0_prog_clk/X VGND VPWR sky130_fd_sc_hd__dfrbp_1
Xmux_top_track_10.tap_buf4_0_.sky130_fd_sc_hd__inv_1 mux_top_track_10.tap_buf4_0_.sky130_fd_sc_hd__inv_1/A
+ _50_/A VGND VPWR sky130_fd_sc_hd__inv_1
XANTENNA_mux_right_track_12.mux_l2_in_0_.TGATE_1_.sky130_fd_sc_hd__ebufn_1_A _30_/HI
+ VGND VPWR sky130_fd_sc_hd__diode_2
XFILLER_18_53 VGND VPWR sky130_fd_sc_hd__fill_2
Xmem_top_track_2.sc_dff_compact_0_.sky130_fd_sc_hd__dfrbp_1 mem_top_track_0.sc_dff_compact_1_.sky130_fd_sc_hd__dfrbp_1/Q
+ mem_top_track_2.sc_dff_compact_1_.sky130_fd_sc_hd__dfrbp_1/D mem_top_track_2.sc_dff_compact_0_.sky130_fd_sc_hd__dfrbp_1/Q_N
+ _19_/Y clkbuf_2_0_0_prog_clk/X VGND VPWR sky130_fd_sc_hd__dfrbp_1
XANTENNA_mem_top_track_14.sc_dff_compact_1_.sky130_fd_sc_hd__dfrbp_1_CLK clkbuf_2_0_0_prog_clk/X
+ VGND VPWR sky130_fd_sc_hd__diode_2
Xmem_right_track_16.sc_dff_compact_0_.sky130_fd_sc_hd__dfrbp_1 mem_right_track_14.sc_dff_compact_1_.sky130_fd_sc_hd__dfrbp_1/Q
+ mem_right_track_16.sc_dff_compact_1_.sky130_fd_sc_hd__dfrbp_1/D mem_right_track_16.sc_dff_compact_0_.sky130_fd_sc_hd__dfrbp_1/Q_N
+ _19_/Y clkbuf_2_3_0_prog_clk/X VGND VPWR sky130_fd_sc_hd__dfrbp_1
XFILLER_20_87 VGND VPWR sky130_fd_sc_hd__fill_2
XFILLER_13_3 VGND VPWR sky130_fd_sc_hd__fill_1
Xmux_right_track_10.mux_l1_in_0_.TGATE_0_.sky130_fd_sc_hd__ebufn_1 mux_right_track_10.INVTX1_0_.sky130_fd_sc_hd__inv_1/Y
+ mux_right_track_10.mux_l1_in_0_.TGATE_0_.sky130_fd_sc_hd__ebufn_1/TE_B mux_right_track_10.mux_l2_in_0_.TGATE_0_.sky130_fd_sc_hd__ebufn_1/A
+ VGND VPWR sky130_fd_sc_hd__ebufn_1
Xmux_top_track_4.INVTX1_0_.sky130_fd_sc_hd__inv_1 top_left_grid_pin_5_ mux_top_track_4.INVTX1_0_.sky130_fd_sc_hd__inv_1/Y
+ VGND VPWR sky130_fd_sc_hd__inv_1
XFILLER_15_32 VGND VPWR sky130_fd_sc_hd__fill_2
Xmux_top_track_8.mux_l2_in_0_.TGATE_1_.sky130_fd_sc_hd__ebufn_1 _27_/HI mux_top_track_8.mux_l2_in_0_.TGATE_1_.sky130_fd_sc_hd__ebufn_1/TE_B
+ mux_top_track_8.tap_buf4_0_.sky130_fd_sc_hd__inv_1/A VGND VPWR sky130_fd_sc_hd__ebufn_1
XFILLER_22_101 VGND VPWR sky130_fd_sc_hd__decap_4
XFILLER_22_123 VGND VPWR sky130_fd_sc_hd__decap_8
XFILLER_13_145 VGND VPWR sky130_fd_sc_hd__fill_2
XFILLER_13_101 VGND VPWR sky130_fd_sc_hd__fill_2
XFILLER_9_105 VGND VPWR sky130_fd_sc_hd__fill_2
XANTENNA_mux_top_track_8.mux_l1_in_0_.TGATE_1_.sky130_fd_sc_hd__ebufn_1_A mux_top_track_8.INVTX1_1_.sky130_fd_sc_hd__inv_1/Y
+ VGND VPWR sky130_fd_sc_hd__diode_2
XANTENNA_mux_top_track_6.tap_buf4_0_.sky130_fd_sc_hd__inv_1_A mux_top_track_6.tap_buf4_0_.sky130_fd_sc_hd__inv_1/A
+ VGND VPWR sky130_fd_sc_hd__diode_2
XFILLER_23_32 VGND VPWR sky130_fd_sc_hd__fill_2
Xmux_top_track_12.mux_l1_in_0_.TGATE_1_.sky130_fd_sc_hd__ebufn_1 mux_top_track_12.INVTX1_1_.sky130_fd_sc_hd__inv_1/Y
+ mux_top_track_12.mux_l1_in_0_.TGATE_1_.sky130_fd_sc_hd__ebufn_1/TE_B mux_top_track_12.mux_l2_in_0_.TGATE_0_.sky130_fd_sc_hd__ebufn_1/A
+ VGND VPWR sky130_fd_sc_hd__ebufn_1
XFILLER_0_58 VGND VPWR sky130_fd_sc_hd__decap_4
XFILLER_23_76 VGND VPWR sky130_fd_sc_hd__fill_2
XFILLER_9_67 VGND VPWR sky130_fd_sc_hd__fill_2
XFILLER_9_23 VGND VPWR sky130_fd_sc_hd__fill_2
XFILLER_9_12 VGND VPWR sky130_fd_sc_hd__fill_2
X_48_ _48_/A chany_top_out[7] VGND VPWR sky130_fd_sc_hd__buf_2
XANTENNA_mux_top_track_14.mux_l2_in_0_.TGATE_0_.sky130_fd_sc_hd__ebufn_1_A mux_top_track_14.mux_l1_in_0_.TGATE_1_.sky130_fd_sc_hd__ebufn_1/Z
+ VGND VPWR sky130_fd_sc_hd__diode_2
XANTENNA_mux_top_track_12.INVTX1_1_.sky130_fd_sc_hd__inv_1_A chanx_right_in[7] VGND
+ VPWR sky130_fd_sc_hd__diode_2
XFILLER_18_32 VGND VPWR sky130_fd_sc_hd__decap_12
XFILLER_15_7 VGND VPWR sky130_fd_sc_hd__fill_2
Xmux_right_track_6.mux_l2_in_0_.TGATE_0_.sky130_fd_sc_hd__ebufn_1 mux_right_track_6.mux_l1_in_0_.TGATE_0_.sky130_fd_sc_hd__ebufn_1/Z
+ mux_right_track_6.mux_l2_in_0_.TGATE_0_.sky130_fd_sc_hd__ebufn_1/TE_B mux_right_track_6.tap_buf4_0_.sky130_fd_sc_hd__inv_1/A
+ VGND VPWR sky130_fd_sc_hd__ebufn_1
XFILLER_20_44 VGND VPWR sky130_fd_sc_hd__decap_8
XFILLER_20_55 VGND VPWR sky130_fd_sc_hd__decap_6
XFILLER_20_66 VGND VPWR sky130_fd_sc_hd__fill_2
XANTENNA_mem_top_track_2.sc_dff_compact_0_.sky130_fd_sc_hd__dfrbp_1_RESET_B _19_/Y
+ VGND VPWR sky130_fd_sc_hd__diode_2
XFILLER_6_13 VGND VPWR sky130_fd_sc_hd__decap_3
XFILLER_15_11 VGND VPWR sky130_fd_sc_hd__fill_2
XANTENNA_mem_top_track_4.sc_dff_compact_1_.sky130_fd_sc_hd__dfrbp_1_RESET_B _19_/Y
+ VGND VPWR sky130_fd_sc_hd__diode_2
XFILLER_15_88 VGND VPWR sky130_fd_sc_hd__fill_2
XANTENNA_mux_right_track_8.mux_l1_in_0_.TGATE_1_.sky130_fd_sc_hd__ebufn_1_A mux_right_track_8.INVTX1_1_.sky130_fd_sc_hd__inv_1/Y
+ VGND VPWR sky130_fd_sc_hd__diode_2
XFILLER_22_113 VGND VPWR sky130_fd_sc_hd__decap_4
Xmux_top_track_6.mux_l2_in_0_.TGATE_0_.sky130_fd_sc_hd__ebufn_1 mux_top_track_6.mux_l1_in_0_.TGATE_0_.sky130_fd_sc_hd__ebufn_1/Z
+ mux_top_track_6.mux_l2_in_0_.TGATE_0_.sky130_fd_sc_hd__ebufn_1/TE_B mux_top_track_6.tap_buf4_0_.sky130_fd_sc_hd__inv_1/A
+ VGND VPWR sky130_fd_sc_hd__ebufn_1
Xmux_right_track_2.INVTX1_1_.sky130_fd_sc_hd__inv_1 right_bottom_grid_pin_1_ mux_right_track_2.INVTX1_1_.sky130_fd_sc_hd__inv_1/Y
+ VGND VPWR sky130_fd_sc_hd__inv_1
XANTENNA_mux_top_track_4.INVTX1_0_.sky130_fd_sc_hd__inv_1_A top_left_grid_pin_5_ VGND
+ VPWR sky130_fd_sc_hd__diode_2
XANTENNA_mem_top_track_12.sc_dff_compact_0_.sky130_fd_sc_hd__dfrbp_1_D mem_top_track_10.sc_dff_compact_1_.sky130_fd_sc_hd__dfrbp_1/Q
+ VGND VPWR sky130_fd_sc_hd__diode_2
XANTENNA_mux_right_track_6.tap_buf4_0_.sky130_fd_sc_hd__inv_1_A mux_right_track_6.tap_buf4_0_.sky130_fd_sc_hd__inv_1/A
+ VGND VPWR sky130_fd_sc_hd__diode_2
XFILLER_12_67 VGND VPWR sky130_fd_sc_hd__decap_3
Xmem_right_track_8.sc_dff_compact_1_.sky130_fd_sc_hd__dfrbp_1 mem_right_track_8.sc_dff_compact_0_.sky130_fd_sc_hd__dfrbp_1/Q
+ mem_right_track_8.sc_dff_compact_1_.sky130_fd_sc_hd__dfrbp_1/Q mem_right_track_8.sc_dff_compact_1_.sky130_fd_sc_hd__dfrbp_1/Q_N
+ _19_/Y clkbuf_2_3_0_prog_clk/X VGND VPWR sky130_fd_sc_hd__dfrbp_1
XANTENNA_mem_right_track_16.sc_dff_compact_0_.sky130_fd_sc_hd__dfrbp_1_RESET_B _19_/Y
+ VGND VPWR sky130_fd_sc_hd__diode_2
XFILLER_2_123 VGND VPWR sky130_fd_sc_hd__fill_2
XFILLER_2_145 VGND VPWR sky130_fd_sc_hd__decap_8
XFILLER_3_3 VGND VPWR sky130_fd_sc_hd__fill_2
XFILLER_23_88 VGND VPWR sky130_fd_sc_hd__fill_2
X_47_ _47_/A chany_top_out[8] VGND VPWR sky130_fd_sc_hd__buf_2
XANTENNA_mux_right_track_12.mux_l1_in_0_.TGATE_1_.sky130_fd_sc_hd__ebufn_1_A mux_right_track_12.INVTX1_1_.sky130_fd_sc_hd__inv_1/Y
+ VGND VPWR sky130_fd_sc_hd__diode_2
Xmux_top_track_4.tap_buf4_0_.sky130_fd_sc_hd__inv_1 mux_top_track_4.tap_buf4_0_.sky130_fd_sc_hd__inv_1/A
+ _53_/A VGND VPWR sky130_fd_sc_hd__inv_1
XFILLER_18_66 VGND VPWR sky130_fd_sc_hd__fill_2
XFILLER_18_44 VGND VPWR sky130_fd_sc_hd__fill_1
Xmux_top_track_10.mux_l1_in_0_.TGATE_0_.sky130_fd_sc_hd__ebufn_1 mux_top_track_10.INVTX1_0_.sky130_fd_sc_hd__inv_1/Y
+ mux_top_track_10.mux_l1_in_0_.TGATE_0_.sky130_fd_sc_hd__ebufn_1/TE_B mux_top_track_10.mux_l1_in_0_.TGATE_0_.sky130_fd_sc_hd__ebufn_1/Z
+ VGND VPWR sky130_fd_sc_hd__ebufn_1
XANTENNA_clkbuf_1_0_0_prog_clk_A clkbuf_0_prog_clk/X VGND VPWR sky130_fd_sc_hd__diode_2
XFILLER_20_34 VGND VPWR sky130_fd_sc_hd__fill_1
XFILLER_19_152 VGND VPWR sky130_fd_sc_hd__fill_1
XFILLER_25_133 VGND VPWR sky130_fd_sc_hd__fill_2
XFILLER_15_23 VGND VPWR sky130_fd_sc_hd__fill_2
Xmem_top_track_12.sc_dff_compact_0_.sky130_fd_sc_hd__dfrbp_1 mem_top_track_10.sc_dff_compact_1_.sky130_fd_sc_hd__dfrbp_1/Q
+ mem_top_track_12.sc_dff_compact_0_.sky130_fd_sc_hd__dfrbp_1/Q mem_top_track_12.sc_dff_compact_0_.sky130_fd_sc_hd__dfrbp_1/Q_N
+ _19_/Y clkbuf_2_0_0_prog_clk/X VGND VPWR sky130_fd_sc_hd__dfrbp_1
Xclkbuf_2_1_0_prog_clk clkbuf_2_1_0_prog_clk/A clkbuf_2_1_0_prog_clk/X VGND VPWR sky130_fd_sc_hd__clkbuf_1
XANTENNA_mem_right_track_16.sc_dff_compact_1_.sky130_fd_sc_hd__dfrbp_1_D mem_right_track_16.sc_dff_compact_1_.sky130_fd_sc_hd__dfrbp_1/D
+ VGND VPWR sky130_fd_sc_hd__diode_2
XANTENNA_mem_right_track_6.sc_dff_compact_0_.sky130_fd_sc_hd__dfrbp_1_CLK clkbuf_2_3_0_prog_clk/X
+ VGND VPWR sky130_fd_sc_hd__diode_2
XFILLER_13_136 VGND VPWR sky130_fd_sc_hd__decap_4
Xmem_right_track_12.sc_dff_compact_0_.sky130_fd_sc_hd__dfrbp_1 mem_right_track_10.sc_dff_compact_1_.sky130_fd_sc_hd__dfrbp_1/Q
+ mem_right_track_12.sc_dff_compact_1_.sky130_fd_sc_hd__dfrbp_1/D mem_right_track_12.sc_dff_compact_0_.sky130_fd_sc_hd__dfrbp_1/Q_N
+ _19_/Y clkbuf_2_2_0_prog_clk/X VGND VPWR sky130_fd_sc_hd__dfrbp_1
Xmux_right_track_16.INVTX1_0_.sky130_fd_sc_hd__inv_1 chany_top_in[7] mux_right_track_16.INVTX1_0_.sky130_fd_sc_hd__inv_1/Y
+ VGND VPWR sky130_fd_sc_hd__inv_1
XFILLER_3_15 VGND VPWR sky130_fd_sc_hd__decap_12
XFILLER_12_57 VGND VPWR sky130_fd_sc_hd__fill_1
XFILLER_10_128 VGND VPWR sky130_fd_sc_hd__fill_2
XANTENNA_mux_top_track_6.mux_l2_in_0_.TGATE_1_.sky130_fd_sc_hd__ebufn_1_A _26_/HI
+ VGND VPWR sky130_fd_sc_hd__diode_2
XFILLER_5_143 VGND VPWR sky130_fd_sc_hd__decap_8
Xmux_right_track_6.mux_l1_in_0_.TGATE_1_.sky130_fd_sc_hd__ebufn_1 mux_right_track_6.INVTX1_1_.sky130_fd_sc_hd__inv_1/Y
+ mux_right_track_6.mux_l1_in_0_.TGATE_1_.sky130_fd_sc_hd__ebufn_1/TE_B mux_right_track_6.mux_l1_in_0_.TGATE_0_.sky130_fd_sc_hd__ebufn_1/Z
+ VGND VPWR sky130_fd_sc_hd__ebufn_1
XANTENNA_mem_top_track_0.sc_dff_compact_1_.sky130_fd_sc_hd__dfrbp_1_D mem_top_track_0.sc_dff_compact_1_.sky130_fd_sc_hd__dfrbp_1/D
+ VGND VPWR sky130_fd_sc_hd__diode_2
XANTENNA_mux_top_track_14.mux_l1_in_0_.TGATE_0_.sky130_fd_sc_hd__ebufn_1_A mux_top_track_14.INVTX1_0_.sky130_fd_sc_hd__inv_1/Y
+ VGND VPWR sky130_fd_sc_hd__diode_2
XFILLER_23_45 VGND VPWR sky130_fd_sc_hd__fill_2
X_46_ _46_/A chanx_right_out[0] VGND VPWR sky130_fd_sc_hd__buf_2
Xmux_top_track_16.INVTX1_0_.sky130_fd_sc_hd__inv_1 top_right_grid_pin_11_ mux_top_track_16.INVTX1_0_.sky130_fd_sc_hd__inv_1/Y
+ VGND VPWR sky130_fd_sc_hd__inv_1
XANTENNA_mux_right_track_2.INVTX1_1_.sky130_fd_sc_hd__inv_1_A right_bottom_grid_pin_1_
+ VGND VPWR sky130_fd_sc_hd__diode_2
XFILLER_9_36 VGND VPWR sky130_fd_sc_hd__fill_2
X_29_ _29_/HI _29_/LO VGND VPWR sky130_fd_sc_hd__conb_1
XFILLER_6_48 VGND VPWR sky130_fd_sc_hd__decap_4
XANTENNA_mem_right_track_0.sc_dff_compact_0_.sky130_fd_sc_hd__dfrbp_1_D mem_top_track_16.sc_dff_compact_1_.sky130_fd_sc_hd__dfrbp_1/Q
+ VGND VPWR sky130_fd_sc_hd__diode_2
XFILLER_19_142 VGND VPWR sky130_fd_sc_hd__fill_2
XFILLER_19_131 VGND VPWR sky130_fd_sc_hd__fill_2
Xmux_top_track_6.mux_l1_in_0_.TGATE_1_.sky130_fd_sc_hd__ebufn_1 mux_top_track_6.INVTX1_1_.sky130_fd_sc_hd__inv_1/Y
+ mux_top_track_6.mux_l1_in_0_.TGATE_1_.sky130_fd_sc_hd__ebufn_1/TE_B mux_top_track_6.mux_l1_in_0_.TGATE_0_.sky130_fd_sc_hd__ebufn_1/Z
+ VGND VPWR sky130_fd_sc_hd__ebufn_1
XFILLER_25_123 VGND VPWR sky130_fd_sc_hd__fill_1
XFILLER_25_145 VGND VPWR sky130_fd_sc_hd__decap_8
XFILLER_15_57 VGND VPWR sky130_fd_sc_hd__fill_2
XFILLER_16_145 VGND VPWR sky130_fd_sc_hd__decap_8
XFILLER_16_123 VGND VPWR sky130_fd_sc_hd__fill_2
XFILLER_11_3 VGND VPWR sky130_fd_sc_hd__decap_6
XANTENNA_mux_right_track_6.mux_l2_in_0_.TGATE_1_.sky130_fd_sc_hd__ebufn_1_A _35_/HI
+ VGND VPWR sky130_fd_sc_hd__diode_2
XANTENNA_mem_top_track_4.sc_dff_compact_0_.sky130_fd_sc_hd__dfrbp_1_CLK clkbuf_2_2_0_prog_clk/X
+ VGND VPWR sky130_fd_sc_hd__diode_2
XFILLER_3_27 VGND VPWR sky130_fd_sc_hd__decap_4
XFILLER_10_118 VGND VPWR sky130_fd_sc_hd__decap_4
Xmux_right_track_12.tap_buf4_0_.sky130_fd_sc_hd__inv_1 mux_right_track_12.tap_buf4_0_.sky130_fd_sc_hd__inv_1/A
+ _40_/A VGND VPWR sky130_fd_sc_hd__inv_1
Xmux_top_track_0.INVTX1_0_.sky130_fd_sc_hd__inv_1 top_left_grid_pin_1_ mux_top_track_0.INVTX1_0_.sky130_fd_sc_hd__inv_1/Y
+ VGND VPWR sky130_fd_sc_hd__inv_1
XFILLER_5_111 VGND VPWR sky130_fd_sc_hd__fill_2
XANTENNA_mux_right_track_16.mux_l2_in_0_.TGATE_0_.sky130_fd_sc_hd__ebufn_1_A mux_right_track_16.mux_l1_in_0_.TGATE_0_.sky130_fd_sc_hd__ebufn_1/Z
+ VGND VPWR sky130_fd_sc_hd__diode_2
XFILLER_2_114 VGND VPWR sky130_fd_sc_hd__decap_6
Xmem_top_track_8.sc_dff_compact_1_.sky130_fd_sc_hd__dfrbp_1 mem_top_track_8.sc_dff_compact_1_.sky130_fd_sc_hd__dfrbp_1/D
+ mem_top_track_8.sc_dff_compact_1_.sky130_fd_sc_hd__dfrbp_1/Q mem_top_track_8.sc_dff_compact_1_.sky130_fd_sc_hd__dfrbp_1/Q_N
+ _19_/Y clkbuf_2_2_0_prog_clk/X VGND VPWR sky130_fd_sc_hd__dfrbp_1
XANTENNA_mux_top_track_4.tap_buf4_0_.sky130_fd_sc_hd__inv_1_A mux_top_track_4.tap_buf4_0_.sky130_fd_sc_hd__inv_1/A
+ VGND VPWR sky130_fd_sc_hd__diode_2
XANTENNA_mem_right_track_14.sc_dff_compact_1_.sky130_fd_sc_hd__dfrbp_1_CLK clkbuf_2_3_0_prog_clk/X
+ VGND VPWR sky130_fd_sc_hd__diode_2
X_45_ _45_/A chanx_right_out[1] VGND VPWR sky130_fd_sc_hd__buf_2
XFILLER_18_57 VGND VPWR sky130_fd_sc_hd__fill_2
Xmux_right_track_4.mux_l1_in_0_.TGATE_0_.sky130_fd_sc_hd__ebufn_1 mux_right_track_4.INVTX1_0_.sky130_fd_sc_hd__inv_1/Y
+ mux_right_track_4.mux_l1_in_0_.TGATE_0_.sky130_fd_sc_hd__ebufn_1/TE_B mux_right_track_4.mux_l2_in_0_.TGATE_0_.sky130_fd_sc_hd__ebufn_1/A
+ VGND VPWR sky130_fd_sc_hd__ebufn_1
XANTENNA_mux_right_track_10.mux_l2_in_0_.TGATE_1_.sky130_fd_sc_hd__ebufn_1_A _29_/HI
+ VGND VPWR sky130_fd_sc_hd__diode_2
X_28_ _28_/HI _28_/LO VGND VPWR sky130_fd_sc_hd__conb_1
Xmem_right_track_4.sc_dff_compact_1_.sky130_fd_sc_hd__dfrbp_1 mem_right_track_4.sc_dff_compact_1_.sky130_fd_sc_hd__dfrbp_1/D
+ mem_right_track_6.sc_dff_compact_0_.sky130_fd_sc_hd__dfrbp_1/D mem_right_track_4.sc_dff_compact_1_.sky130_fd_sc_hd__dfrbp_1/Q_N
+ _19_/Y clkbuf_2_3_0_prog_clk/X VGND VPWR sky130_fd_sc_hd__dfrbp_1
XANTENNA_mux_top_track_14.INVTX1_0_.sky130_fd_sc_hd__inv_1_A top_left_grid_pin_15_
+ VGND VPWR sky130_fd_sc_hd__diode_2
XFILLER_1_93 VGND VPWR sky130_fd_sc_hd__decap_8
XFILLER_13_7 VGND VPWR sky130_fd_sc_hd__fill_2
XFILLER_25_102 VGND VPWR sky130_fd_sc_hd__decap_3
XFILLER_16_102 VGND VPWR sky130_fd_sc_hd__fill_2
XFILLER_22_105 VGND VPWR sky130_fd_sc_hd__fill_1
Xmux_top_track_4.mux_l1_in_0_.TGATE_0_.sky130_fd_sc_hd__ebufn_1 mux_top_track_4.INVTX1_0_.sky130_fd_sc_hd__inv_1/Y
+ mux_top_track_4.mux_l1_in_0_.TGATE_0_.sky130_fd_sc_hd__ebufn_1/TE_B mux_top_track_4.mux_l2_in_0_.TGATE_0_.sky130_fd_sc_hd__ebufn_1/A
+ VGND VPWR sky130_fd_sc_hd__ebufn_1
XANTENNA_mem_top_track_2.sc_dff_compact_0_.sky130_fd_sc_hd__dfrbp_1_D mem_top_track_0.sc_dff_compact_1_.sky130_fd_sc_hd__dfrbp_1/Q
+ VGND VPWR sky130_fd_sc_hd__diode_2
XFILLER_3_39 VGND VPWR sky130_fd_sc_hd__fill_2
XFILLER_13_149 VGND VPWR sky130_fd_sc_hd__decap_4
XFILLER_13_105 VGND VPWR sky130_fd_sc_hd__fill_2
XFILLER_9_109 VGND VPWR sky130_fd_sc_hd__fill_2
XANTENNA_mux_top_track_6.mux_l1_in_0_.TGATE_1_.sky130_fd_sc_hd__ebufn_1_A mux_top_track_6.INVTX1_1_.sky130_fd_sc_hd__inv_1/Y
+ VGND VPWR sky130_fd_sc_hd__diode_2
XFILLER_8_131 VGND VPWR sky130_fd_sc_hd__decap_8
XFILLER_12_37 VGND VPWR sky130_fd_sc_hd__decap_6
XFILLER_5_9 VGND VPWR sky130_fd_sc_hd__fill_1
XANTENNA_mem_top_track_0.sc_dff_compact_0_.sky130_fd_sc_hd__dfrbp_1_RESET_B _19_/Y
+ VGND VPWR sky130_fd_sc_hd__diode_2
XANTENNA_mem_top_track_14.sc_dff_compact_0_.sky130_fd_sc_hd__dfrbp_1_CLK clkbuf_2_0_0_prog_clk/X
+ VGND VPWR sky130_fd_sc_hd__diode_2
XFILLER_5_123 VGND VPWR sky130_fd_sc_hd__fill_2
XFILLER_23_36 VGND VPWR sky130_fd_sc_hd__fill_1
XANTENNA_mem_top_track_2.sc_dff_compact_1_.sky130_fd_sc_hd__dfrbp_1_RESET_B _19_/Y
+ VGND VPWR sky130_fd_sc_hd__diode_2
XANTENNA_mux_right_track_4.tap_buf4_0_.sky130_fd_sc_hd__inv_1_A mux_right_track_4.tap_buf4_0_.sky130_fd_sc_hd__inv_1/A
+ VGND VPWR sky130_fd_sc_hd__diode_2
XFILLER_9_27 VGND VPWR sky130_fd_sc_hd__fill_2
XFILLER_9_16 VGND VPWR sky130_fd_sc_hd__decap_4
X_44_ _44_/A chanx_right_out[2] VGND VPWR sky130_fd_sc_hd__buf_2
XANTENNA_mux_top_track_12.mux_l2_in_0_.TGATE_0_.sky130_fd_sc_hd__ebufn_1_A mux_top_track_12.mux_l2_in_0_.TGATE_0_.sky130_fd_sc_hd__ebufn_1/A
+ VGND VPWR sky130_fd_sc_hd__diode_2
XFILLER_1_3 VGND VPWR sky130_fd_sc_hd__fill_2
X_27_ _27_/HI _27_/LO VGND VPWR sky130_fd_sc_hd__conb_1
XFILLER_20_26 VGND VPWR sky130_fd_sc_hd__fill_2
Xmux_right_track_6.tap_buf4_0_.sky130_fd_sc_hd__inv_1 mux_right_track_6.tap_buf4_0_.sky130_fd_sc_hd__inv_1/A
+ _43_/A VGND VPWR sky130_fd_sc_hd__inv_1
XFILLER_10_92 VGND VPWR sky130_fd_sc_hd__fill_2
XFILLER_15_37 VGND VPWR sky130_fd_sc_hd__fill_2
XANTENNA_mem_right_track_14.sc_dff_compact_0_.sky130_fd_sc_hd__dfrbp_1_RESET_B _19_/Y
+ VGND VPWR sky130_fd_sc_hd__diode_2
XFILLER_21_91 VGND VPWR sky130_fd_sc_hd__fill_1
XFILLER_16_114 VGND VPWR sky130_fd_sc_hd__fill_2
XPHY_0 VGND VPWR sky130_fd_sc_hd__decap_3
XFILLER_7_93 VGND VPWR sky130_fd_sc_hd__decap_3
XANTENNA_mem_right_track_16.sc_dff_compact_1_.sky130_fd_sc_hd__dfrbp_1_RESET_B _19_/Y
+ VGND VPWR sky130_fd_sc_hd__diode_2
XANTENNA_mux_right_track_6.mux_l1_in_0_.TGATE_1_.sky130_fd_sc_hd__ebufn_1_A mux_right_track_6.INVTX1_1_.sky130_fd_sc_hd__inv_1/Y
+ VGND VPWR sky130_fd_sc_hd__diode_2
Xmux_right_track_16.mux_l2_in_0_.TGATE_1_.sky130_fd_sc_hd__ebufn_1 _32_/HI mux_right_track_16.mux_l2_in_0_.TGATE_1_.sky130_fd_sc_hd__ebufn_1/TE_B
+ mux_right_track_16.tap_buf4_0_.sky130_fd_sc_hd__inv_1/A VGND VPWR sky130_fd_sc_hd__ebufn_1
XANTENNA_mem_right_track_0.sc_dff_compact_1_.sky130_fd_sc_hd__dfrbp_1_CLK clkbuf_2_1_0_prog_clk/X
+ VGND VPWR sky130_fd_sc_hd__diode_2
XANTENNA_mux_right_track_16.mux_l1_in_0_.TGATE_0_.sky130_fd_sc_hd__ebufn_1_A mux_right_track_16.INVTX1_0_.sky130_fd_sc_hd__inv_1/Y
+ VGND VPWR sky130_fd_sc_hd__diode_2
Xclkbuf_2_0_0_prog_clk clkbuf_2_1_0_prog_clk/A clkbuf_2_0_0_prog_clk/X VGND VPWR sky130_fd_sc_hd__clkbuf_1
XANTENNA__42__A _42_/A VGND VPWR sky130_fd_sc_hd__diode_2
XFILLER_23_15 VGND VPWR sky130_fd_sc_hd__fill_2
XANTENNA_mem_top_track_16.sc_dff_compact_1_.sky130_fd_sc_hd__dfrbp_1_D mem_top_track_16.sc_dff_compact_1_.sky130_fd_sc_hd__dfrbp_1/D
+ VGND VPWR sky130_fd_sc_hd__diode_2
XFILLER_0_19 VGND VPWR sky130_fd_sc_hd__decap_12
XFILLER_3_7 VGND VPWR sky130_fd_sc_hd__fill_2
X_43_ _43_/A chanx_right_out[3] VGND VPWR sky130_fd_sc_hd__buf_2
Xmux_right_track_12.INVTX1_0_.sky130_fd_sc_hd__inv_1 chany_top_in[5] mux_right_track_12.INVTX1_0_.sky130_fd_sc_hd__inv_1/Y
+ VGND VPWR sky130_fd_sc_hd__inv_1
XANTENNA_mux_right_track_4.INVTX1_0_.sky130_fd_sc_hd__inv_1_A chany_top_in[1] VGND
+ VPWR sky130_fd_sc_hd__diode_2
XANTENNA_mux_right_track_10.mux_l1_in_0_.TGATE_1_.sky130_fd_sc_hd__ebufn_1_A mux_right_track_10.INVTX1_1_.sky130_fd_sc_hd__inv_1/Y
+ VGND VPWR sky130_fd_sc_hd__diode_2
XANTENNA_mux_top_track_0.INVTX1_1_.sky130_fd_sc_hd__inv_1_A chanx_right_in[1] VGND
+ VPWR sky130_fd_sc_hd__diode_2
XFILLER_24_91 VGND VPWR sky130_fd_sc_hd__fill_1
X_26_ _26_/HI _26_/LO VGND VPWR sky130_fd_sc_hd__conb_1
XFILLER_1_51 VGND VPWR sky130_fd_sc_hd__fill_2
XFILLER_1_62 VGND VPWR sky130_fd_sc_hd__fill_2
XFILLER_1_73 VGND VPWR sky130_fd_sc_hd__fill_2
XFILLER_1_84 VGND VPWR sky130_fd_sc_hd__fill_2
XANTENNA__50__A _50_/A VGND VPWR sky130_fd_sc_hd__diode_2
XFILLER_19_101 VGND VPWR sky130_fd_sc_hd__fill_2
XFILLER_6_18 VGND VPWR sky130_fd_sc_hd__decap_3
Xmem_top_track_4.sc_dff_compact_1_.sky130_fd_sc_hd__dfrbp_1 mem_top_track_4.sc_dff_compact_1_.sky130_fd_sc_hd__dfrbp_1/D
+ mem_top_track_4.sc_dff_compact_1_.sky130_fd_sc_hd__dfrbp_1/Q mem_top_track_4.sc_dff_compact_1_.sky130_fd_sc_hd__dfrbp_1/Q_N
+ _19_/Y clkbuf_2_2_0_prog_clk/X VGND VPWR sky130_fd_sc_hd__dfrbp_1
Xmux_top_track_12.INVTX1_0_.sky130_fd_sc_hd__inv_1 top_left_grid_pin_13_ mux_top_track_12.INVTX1_0_.sky130_fd_sc_hd__inv_1/Y
+ VGND VPWR sky130_fd_sc_hd__inv_1
XFILLER_25_115 VGND VPWR sky130_fd_sc_hd__decap_8
XFILLER_15_27 VGND VPWR sky130_fd_sc_hd__fill_2
XANTENNA__45__A _45_/A VGND VPWR sky130_fd_sc_hd__diode_2
Xmem_right_track_0.sc_dff_compact_1_.sky130_fd_sc_hd__dfrbp_1 mem_right_track_0.sc_dff_compact_0_.sky130_fd_sc_hd__dfrbp_1/Q
+ mem_right_track_2.sc_dff_compact_0_.sky130_fd_sc_hd__dfrbp_1/D mem_right_track_0.sc_dff_compact_1_.sky130_fd_sc_hd__dfrbp_1/Q_N
+ _19_/Y clkbuf_2_1_0_prog_clk/X VGND VPWR sky130_fd_sc_hd__dfrbp_1
XPHY_1 VGND VPWR sky130_fd_sc_hd__decap_3
XFILLER_21_140 VGND VPWR sky130_fd_sc_hd__fill_2
XANTENNA_mux_top_track_4.mux_l2_in_0_.TGATE_1_.sky130_fd_sc_hd__ebufn_1_A _25_/HI
+ VGND VPWR sky130_fd_sc_hd__diode_2
Xmux_right_track_14.mux_l2_in_0_.TGATE_0_.sky130_fd_sc_hd__ebufn_1 mux_right_track_14.mux_l1_in_0_.TGATE_0_.sky130_fd_sc_hd__ebufn_1/Z
+ mux_right_track_14.mux_l2_in_0_.TGATE_0_.sky130_fd_sc_hd__ebufn_1/TE_B mux_right_track_14.tap_buf4_0_.sky130_fd_sc_hd__inv_1/A
+ VGND VPWR sky130_fd_sc_hd__ebufn_1
XANTENNA_mux_right_track_14.INVTX1_1_.sky130_fd_sc_hd__inv_1_A right_bottom_grid_pin_13_
+ VGND VPWR sky130_fd_sc_hd__diode_2
XANTENNA_mux_top_track_12.mux_l1_in_0_.TGATE_0_.sky130_fd_sc_hd__ebufn_1_A mux_top_track_12.INVTX1_0_.sky130_fd_sc_hd__inv_1/Y
+ VGND VPWR sky130_fd_sc_hd__diode_2
XANTENNA__53__A _53_/A VGND VPWR sky130_fd_sc_hd__diode_2
XFILLER_23_27 VGND VPWR sky130_fd_sc_hd__fill_2
XFILLER_23_49 VGND VPWR sky130_fd_sc_hd__fill_2
X_42_ _42_/A chanx_right_out[4] VGND VPWR sky130_fd_sc_hd__buf_2
XANTENNA__48__A _48_/A VGND VPWR sky130_fd_sc_hd__diode_2
X_25_ _25_/HI _25_/LO VGND VPWR sky130_fd_sc_hd__conb_1
XANTENNA_mux_top_track_2.tap_buf4_0_.sky130_fd_sc_hd__inv_1_A mux_top_track_2.tap_buf4_0_.sky130_fd_sc_hd__inv_1/A
+ VGND VPWR sky130_fd_sc_hd__diode_2
XFILLER_1_41 VGND VPWR sky130_fd_sc_hd__decap_6
XANTENNA_clkbuf_2_2_0_prog_clk_A clkbuf_2_2_0_prog_clk/A VGND VPWR sky130_fd_sc_hd__diode_2
XANTENNA_mem_right_track_8.sc_dff_compact_1_.sky130_fd_sc_hd__dfrbp_1_CLK clkbuf_2_3_0_prog_clk/X
+ VGND VPWR sky130_fd_sc_hd__diode_2
XFILLER_19_146 VGND VPWR sky130_fd_sc_hd__decap_6
XFILLER_19_135 VGND VPWR sky130_fd_sc_hd__fill_2
Xmux_top_track_6.INVTX1_1_.sky130_fd_sc_hd__inv_1 chanx_right_in[4] mux_top_track_6.INVTX1_1_.sky130_fd_sc_hd__inv_1/Y
+ VGND VPWR sky130_fd_sc_hd__inv_1
XPHY_100 VGND VPWR sky130_fd_sc_hd__tapvpwrvgnd_1
Xmux_top_track_16.mux_l2_in_0_.TGATE_1_.sky130_fd_sc_hd__ebufn_1 _23_/HI mux_top_track_16.mux_l2_in_0_.TGATE_1_.sky130_fd_sc_hd__ebufn_1/TE_B
+ mux_top_track_16.tap_buf4_0_.sky130_fd_sc_hd__inv_1/A VGND VPWR sky130_fd_sc_hd__ebufn_1
XPHY_2 VGND VPWR sky130_fd_sc_hd__decap_3
XANTENNA_mem_right_track_4.sc_dff_compact_1_.sky130_fd_sc_hd__dfrbp_1_D mem_right_track_4.sc_dff_compact_1_.sky130_fd_sc_hd__dfrbp_1/D
+ VGND VPWR sky130_fd_sc_hd__diode_2
XFILLER_21_93 VGND VPWR sky130_fd_sc_hd__decap_6
XFILLER_22_108 VGND VPWR sky130_fd_sc_hd__fill_1
XFILLER_22_119 VGND VPWR sky130_fd_sc_hd__decap_3
XFILLER_21_152 VGND VPWR sky130_fd_sc_hd__fill_1
XFILLER_7_84 VGND VPWR sky130_fd_sc_hd__fill_2
XFILLER_7_73 VGND VPWR sky130_fd_sc_hd__decap_6
XFILLER_16_71 VGND VPWR sky130_fd_sc_hd__fill_1
XFILLER_16_60 VGND VPWR sky130_fd_sc_hd__fill_1
XFILLER_12_141 VGND VPWR sky130_fd_sc_hd__decap_12
XFILLER_8_145 VGND VPWR sky130_fd_sc_hd__decap_8
Xmux_right_track_6.INVTX1_0_.sky130_fd_sc_hd__inv_1 chany_top_in[2] mux_right_track_6.INVTX1_0_.sky130_fd_sc_hd__inv_1/Y
+ VGND VPWR sky130_fd_sc_hd__inv_1
XANTENNA_mux_right_track_4.mux_l2_in_0_.TGATE_1_.sky130_fd_sc_hd__ebufn_1_A _34_/HI
+ VGND VPWR sky130_fd_sc_hd__diode_2
Xmux_right_track_2.mux_l2_in_0_.TGATE_1_.sky130_fd_sc_hd__ebufn_1 _33_/HI mux_right_track_2.mux_l2_in_0_.TGATE_1_.sky130_fd_sc_hd__ebufn_1/TE_B
+ mux_right_track_2.tap_buf4_0_.sky130_fd_sc_hd__inv_1/A VGND VPWR sky130_fd_sc_hd__ebufn_1
XANTENNA_mux_right_track_14.mux_l2_in_0_.TGATE_0_.sky130_fd_sc_hd__ebufn_1_A mux_right_track_14.mux_l1_in_0_.TGATE_0_.sky130_fd_sc_hd__ebufn_1/Z
+ VGND VPWR sky130_fd_sc_hd__diode_2
XFILLER_2_129 VGND VPWR sky130_fd_sc_hd__decap_8
X_41_ _41_/A chanx_right_out[5] VGND VPWR sky130_fd_sc_hd__buf_2
XFILLER_1_140 VGND VPWR sky130_fd_sc_hd__decap_12
X_24_ _24_/HI _24_/LO VGND VPWR sky130_fd_sc_hd__conb_1
Xmux_top_track_2.mux_l2_in_0_.TGATE_1_.sky130_fd_sc_hd__ebufn_1 _24_/HI mux_top_track_2.mux_l2_in_0_.TGATE_1_.sky130_fd_sc_hd__ebufn_1/TE_B
+ mux_top_track_2.tap_buf4_0_.sky130_fd_sc_hd__inv_1/A VGND VPWR sky130_fd_sc_hd__ebufn_1
XANTENNA_mux_right_track_2.tap_buf4_0_.sky130_fd_sc_hd__inv_1_A mux_right_track_2.tap_buf4_0_.sky130_fd_sc_hd__inv_1/A
+ VGND VPWR sky130_fd_sc_hd__diode_2
XFILLER_10_62 VGND VPWR sky130_fd_sc_hd__fill_2
XANTENNA_mem_top_track_6.sc_dff_compact_1_.sky130_fd_sc_hd__dfrbp_1_CLK clkbuf_2_2_0_prog_clk/X
+ VGND VPWR sky130_fd_sc_hd__diode_2
XPHY_101 VGND VPWR sky130_fd_sc_hd__tapvpwrvgnd_1
XANTENNA_mem_top_track_0.sc_dff_compact_1_.sky130_fd_sc_hd__dfrbp_1_RESET_B _19_/Y
+ VGND VPWR sky130_fd_sc_hd__diode_2
XANTENNA_mem_right_track_10.sc_dff_compact_0_.sky130_fd_sc_hd__dfrbp_1_D mem_right_track_8.sc_dff_compact_1_.sky130_fd_sc_hd__dfrbp_1/Q
+ VGND VPWR sky130_fd_sc_hd__diode_2
XFILLER_21_61 VGND VPWR sky130_fd_sc_hd__fill_1
XFILLER_21_83 VGND VPWR sky130_fd_sc_hd__fill_2
XPHY_3 VGND VPWR sky130_fd_sc_hd__decap_3
Xmux_right_track_14.mux_l1_in_0_.TGATE_1_.sky130_fd_sc_hd__ebufn_1 mux_right_track_14.INVTX1_1_.sky130_fd_sc_hd__inv_1/Y
+ mux_right_track_14.mux_l1_in_0_.TGATE_1_.sky130_fd_sc_hd__ebufn_1/TE_B mux_right_track_14.mux_l1_in_0_.TGATE_0_.sky130_fd_sc_hd__ebufn_1/Z
+ VGND VPWR sky130_fd_sc_hd__ebufn_1
XANTENNA_mux_top_track_10.INVTX1_1_.sky130_fd_sc_hd__inv_1_A chanx_right_in[6] VGND
+ VPWR sky130_fd_sc_hd__diode_2
XFILLER_8_102 VGND VPWR sky130_fd_sc_hd__decap_4
Xmem_top_track_14.sc_dff_compact_1_.sky130_fd_sc_hd__dfrbp_1 mem_top_track_14.sc_dff_compact_0_.sky130_fd_sc_hd__dfrbp_1/Q
+ mem_top_track_14.sc_dff_compact_1_.sky130_fd_sc_hd__dfrbp_1/Q mem_top_track_14.sc_dff_compact_1_.sky130_fd_sc_hd__dfrbp_1/Q_N
+ _19_/Y clkbuf_2_0_0_prog_clk/X VGND VPWR sky130_fd_sc_hd__dfrbp_1
Xmux_top_track_14.mux_l2_in_0_.TGATE_0_.sky130_fd_sc_hd__ebufn_1 mux_top_track_14.mux_l1_in_0_.TGATE_1_.sky130_fd_sc_hd__ebufn_1/Z