* NGSPICE file created from cby_3__1_.ext - technology: sky130A

* Black-box entry subcircuit for sky130_fd_sc_hd__dfrbp_1 abstract view
.subckt sky130_fd_sc_hd__dfrbp_1 D Q Q_N RESET_B CLK VGND VPWR
.ends

* Black-box entry subcircuit for sky130_fd_sc_hd__fill_1 abstract view
.subckt sky130_fd_sc_hd__fill_1 VGND VPWR
.ends

* Black-box entry subcircuit for sky130_fd_sc_hd__fill_2 abstract view
.subckt sky130_fd_sc_hd__fill_2 VGND VPWR
.ends

* Black-box entry subcircuit for sky130_fd_sc_hd__decap_4 abstract view
.subckt sky130_fd_sc_hd__decap_4 VGND VPWR
.ends

* Black-box entry subcircuit for sky130_fd_sc_hd__diode_2 abstract view
.subckt sky130_fd_sc_hd__diode_2 DIODE VGND VPWR
.ends

* Black-box entry subcircuit for sky130_fd_sc_hd__decap_8 abstract view
.subckt sky130_fd_sc_hd__decap_8 VGND VPWR
.ends

* Black-box entry subcircuit for sky130_fd_sc_hd__decap_12 abstract view
.subckt sky130_fd_sc_hd__decap_12 VGND VPWR
.ends

* Black-box entry subcircuit for sky130_fd_sc_hd__clkbuf_1 abstract view
.subckt sky130_fd_sc_hd__clkbuf_1 A X VGND VPWR
.ends

* Black-box entry subcircuit for sky130_fd_sc_hd__tapvpwrvgnd_1 abstract view
.subckt sky130_fd_sc_hd__tapvpwrvgnd_1 VGND VPWR
.ends

* Black-box entry subcircuit for sky130_fd_sc_hd__decap_3 abstract view
.subckt sky130_fd_sc_hd__decap_3 VGND VPWR
.ends

* Black-box entry subcircuit for sky130_fd_sc_hd__decap_6 abstract view
.subckt sky130_fd_sc_hd__decap_6 VGND VPWR
.ends

* Black-box entry subcircuit for sky130_fd_sc_hd__buf_2 abstract view
.subckt sky130_fd_sc_hd__buf_2 A X VGND VPWR
.ends

* Black-box entry subcircuit for sky130_fd_sc_hd__conb_1 abstract view
.subckt sky130_fd_sc_hd__conb_1 HI LO VGND VPWR
.ends

* Black-box entry subcircuit for sky130_fd_sc_hd__clkbuf_16 abstract view
.subckt sky130_fd_sc_hd__clkbuf_16 A X VGND VPWR
.ends

.subckt cby_3__1_ ccff_head ccff_tail chany_bottom_in[0] chany_bottom_in[1] chany_bottom_in[2]
+ chany_bottom_in[3] chany_bottom_in[4] chany_bottom_in[5] chany_bottom_in[6] chany_bottom_in[7]
+ chany_bottom_in[8] chany_bottom_out[0] chany_bottom_out[1] chany_bottom_out[2] chany_bottom_out[3]
+ chany_bottom_out[4] chany_bottom_out[5] chany_bottom_out[6] chany_bottom_out[7]
+ chany_bottom_out[8] chany_top_in[0] chany_top_in[1] chany_top_in[2] chany_top_in[3]
+ chany_top_in[4] chany_top_in[5] chany_top_in[6] chany_top_in[7] chany_top_in[8]
+ chany_top_out[0] chany_top_out[1] chany_top_out[2] chany_top_out[3] chany_top_out[4]
+ chany_top_out[5] chany_top_out[6] chany_top_out[7] chany_top_out[8] left_grid_pin_1_
+ left_grid_pin_5_ left_grid_pin_9_ pReset prog_clk right_grid_pin_0_ right_grid_pin_10_
+ right_grid_pin_12_ right_grid_pin_14_ right_grid_pin_2_ right_grid_pin_4_ right_grid_pin_6_
+ right_grid_pin_8_ VPWR VGND
Xmem_left_ipin_4.sc_dff_compact_2_.sky130_fd_sc_hd__dfrbp_1 mem_left_ipin_4.sc_dff_compact_2_.sky130_fd_sc_hd__dfrbp_1/D
+ mem_left_ipin_4.sc_dff_compact_2_.sky130_fd_sc_hd__dfrbp_1/Q mem_left_ipin_4.sc_dff_compact_2_.sky130_fd_sc_hd__dfrbp_1/Q_N
+ pReset clkbuf_3_5_0_prog_clk/X VGND VPWR sky130_fd_sc_hd__dfrbp_1
XFILLER_22_166 VGND VPWR sky130_fd_sc_hd__fill_1
XFILLER_13_166 VGND VPWR sky130_fd_sc_hd__fill_2
XFILLER_5_365 VGND VPWR sky130_fd_sc_hd__fill_1
XFILLER_3_56 VGND VPWR sky130_fd_sc_hd__decap_4
Xmem_left_ipin_1.sc_dff_compact_3_.sky130_fd_sc_hd__dfrbp_1 mem_left_ipin_1.sc_dff_compact_3_.sky130_fd_sc_hd__dfrbp_1/D
+ mem_left_ipin_1.sc_dff_compact_3_.sky130_fd_sc_hd__dfrbp_1/Q mem_left_ipin_1.sc_dff_compact_3_.sky130_fd_sc_hd__dfrbp_1/Q_N
+ pReset clkbuf_3_1_0_prog_clk/X VGND VPWR sky130_fd_sc_hd__dfrbp_1
XANTENNA_mem_left_ipin_7.sc_dff_compact_3_.sky130_fd_sc_hd__dfrbp_1_D mem_left_ipin_7.sc_dff_compact_2_.sky130_fd_sc_hd__dfrbp_1/Q
+ VGND VPWR sky130_fd_sc_hd__diode_2
XFILLER_6_129 VGND VPWR sky130_fd_sc_hd__decap_4
XFILLER_12_32 VGND VPWR sky130_fd_sc_hd__fill_2
XFILLER_18_247 VGND VPWR sky130_fd_sc_hd__decap_8
XFILLER_5_184 VGND VPWR sky130_fd_sc_hd__decap_12
XFILLER_17_280 VGND VPWR sky130_fd_sc_hd__decap_12
XFILLER_24_239 VGND VPWR sky130_fd_sc_hd__decap_12
XFILLER_15_206 VGND VPWR sky130_fd_sc_hd__fill_2
XFILLER_23_53 VGND VPWR sky130_fd_sc_hd__decap_8
XFILLER_2_154 VGND VPWR sky130_fd_sc_hd__fill_2
XANTENNA_clkbuf_2_1_0_prog_clk_A clkbuf_0_prog_clk/X VGND VPWR sky130_fd_sc_hd__diode_2
Xclkbuf_3_4_0_prog_clk clkbuf_2_2_0_prog_clk/X clkbuf_3_4_0_prog_clk/X VGND VPWR sky130_fd_sc_hd__clkbuf_1
XFILLER_11_220 VGND VPWR sky130_fd_sc_hd__decap_12
XFILLER_11_242 VGND VPWR sky130_fd_sc_hd__fill_2
XFILLER_7_257 VGND VPWR sky130_fd_sc_hd__decap_12
XFILLER_11_286 VGND VPWR sky130_fd_sc_hd__decap_12
XFILLER_25_323 VGND VPWR sky130_fd_sc_hd__decap_12
XFILLER_20_32 VGND VPWR sky130_fd_sc_hd__fill_2
XFILLER_16_312 VGND VPWR sky130_fd_sc_hd__decap_12
XFILLER_6_67 VGND VPWR sky130_fd_sc_hd__decap_12
XFILLER_13_3 VGND VPWR sky130_fd_sc_hd__decap_12
XANTENNA_mem_left_ipin_4.sc_dff_compact_0_.sky130_fd_sc_hd__dfrbp_1_CLK clkbuf_3_5_0_prog_clk/X
+ VGND VPWR sky130_fd_sc_hd__diode_2
XFILLER_22_315 VGND VPWR sky130_fd_sc_hd__decap_12
XFILLER_22_337 VGND VPWR sky130_fd_sc_hd__decap_12
XFILLER_22_359 VGND VPWR sky130_fd_sc_hd__decap_8
XFILLER_1_208 VGND VPWR sky130_fd_sc_hd__decap_12
XANTENNA_mem_left_ipin_5.sc_dff_compact_1_.sky130_fd_sc_hd__dfrbp_1_CLK clkbuf_3_7_0_prog_clk/X
+ VGND VPWR sky130_fd_sc_hd__diode_2
XFILLER_15_98 VGND VPWR sky130_fd_sc_hd__decap_8
XFILLER_0_230 VGND VPWR sky130_fd_sc_hd__decap_12
XANTENNA_mem_left_ipin_6.sc_dff_compact_2_.sky130_fd_sc_hd__dfrbp_1_CLK clkbuf_3_6_0_prog_clk/X
+ VGND VPWR sky130_fd_sc_hd__diode_2
XPHY_170 VGND VPWR sky130_fd_sc_hd__tapvpwrvgnd_1
XFILLER_8_341 VGND VPWR sky130_fd_sc_hd__fill_2
XANTENNA_mem_left_ipin_7.sc_dff_compact_3_.sky130_fd_sc_hd__dfrbp_1_CLK clkbuf_3_3_0_prog_clk/X
+ VGND VPWR sky130_fd_sc_hd__diode_2
XPHY_181 VGND VPWR sky130_fd_sc_hd__tapvpwrvgnd_1
XPHY_192 VGND VPWR sky130_fd_sc_hd__tapvpwrvgnd_1
XFILLER_22_145 VGND VPWR sky130_fd_sc_hd__decap_8
XFILLER_13_123 VGND VPWR sky130_fd_sc_hd__decap_12
XFILLER_3_68 VGND VPWR sky130_fd_sc_hd__fill_2
XFILLER_10_148 VGND VPWR sky130_fd_sc_hd__fill_1
XFILLER_12_77 VGND VPWR sky130_fd_sc_hd__fill_1
XFILLER_18_215 VGND VPWR sky130_fd_sc_hd__decap_12
XFILLER_18_259 VGND VPWR sky130_fd_sc_hd__decap_12
XFILLER_5_196 VGND VPWR sky130_fd_sc_hd__decap_8
XFILLER_1_391 VGND VPWR sky130_fd_sc_hd__decap_3
XFILLER_17_292 VGND VPWR sky130_fd_sc_hd__decap_12
XFILLER_23_262 VGND VPWR sky130_fd_sc_hd__decap_8
XANTENNA_mem_right_ipin_0.sc_dff_compact_4_.sky130_fd_sc_hd__dfrbp_1_RESET_B pReset
+ VGND VPWR sky130_fd_sc_hd__diode_2
XFILLER_20_276 VGND VPWR sky130_fd_sc_hd__decap_4
XFILLER_18_32 VGND VPWR sky130_fd_sc_hd__fill_2
XFILLER_11_298 VGND VPWR sky130_fd_sc_hd__decap_6
XFILLER_7_269 VGND VPWR sky130_fd_sc_hd__decap_12
XFILLER_19_365 VGND VPWR sky130_fd_sc_hd__fill_1
XFILLER_25_335 VGND VPWR sky130_fd_sc_hd__decap_6
XFILLER_16_324 VGND VPWR sky130_fd_sc_hd__decap_6
XFILLER_6_57 VGND VPWR sky130_fd_sc_hd__decap_6
XFILLER_3_261 VGND VPWR sky130_fd_sc_hd__fill_2
XFILLER_6_79 VGND VPWR sky130_fd_sc_hd__decap_12
XFILLER_19_184 VGND VPWR sky130_fd_sc_hd__decap_12
XFILLER_22_327 VGND VPWR sky130_fd_sc_hd__decap_8
XFILLER_22_349 VGND VPWR sky130_fd_sc_hd__decap_6
XFILLER_25_187 VGND VPWR sky130_fd_sc_hd__decap_12
XFILLER_0_242 VGND VPWR sky130_fd_sc_hd__decap_6
XFILLER_16_154 VGND VPWR sky130_fd_sc_hd__decap_12
XPHY_160 VGND VPWR sky130_fd_sc_hd__tapvpwrvgnd_1
XPHY_171 VGND VPWR sky130_fd_sc_hd__tapvpwrvgnd_1
XPHY_182 VGND VPWR sky130_fd_sc_hd__tapvpwrvgnd_1
XPHY_193 VGND VPWR sky130_fd_sc_hd__tapvpwrvgnd_1
XANTENNA_mem_left_ipin_7.sc_dff_compact_0_.sky130_fd_sc_hd__dfrbp_1_RESET_B pReset
+ VGND VPWR sky130_fd_sc_hd__diode_2
XFILLER_12_393 VGND VPWR sky130_fd_sc_hd__fill_1
Xmem_left_ipin_6.sc_dff_compact_0_.sky130_fd_sc_hd__dfrbp_1 mem_left_ipin_5.sc_dff_compact_5_.sky130_fd_sc_hd__dfrbp_1/Q
+ mem_left_ipin_6.sc_dff_compact_0_.sky130_fd_sc_hd__dfrbp_1/Q mem_left_ipin_6.sc_dff_compact_0_.sky130_fd_sc_hd__dfrbp_1/Q_N
+ pReset clkbuf_3_7_0_prog_clk/X VGND VPWR sky130_fd_sc_hd__dfrbp_1
XFILLER_13_113 VGND VPWR sky130_fd_sc_hd__fill_2
XFILLER_13_135 VGND VPWR sky130_fd_sc_hd__decap_12
XFILLER_5_367 VGND VPWR sky130_fd_sc_hd__decap_12
XFILLER_12_190 VGND VPWR sky130_fd_sc_hd__decap_12
XANTENNA_mem_right_ipin_0.sc_dff_compact_4_.sky130_fd_sc_hd__dfrbp_1_CLK clkbuf_3_2_0_prog_clk/X
+ VGND VPWR sky130_fd_sc_hd__diode_2
XFILLER_10_116 VGND VPWR sky130_fd_sc_hd__decap_12
Xmem_left_ipin_3.sc_dff_compact_1_.sky130_fd_sc_hd__dfrbp_1 mem_left_ipin_3.sc_dff_compact_0_.sky130_fd_sc_hd__dfrbp_1/Q
+ mem_left_ipin_3.sc_dff_compact_1_.sky130_fd_sc_hd__dfrbp_1/Q mem_left_ipin_3.sc_dff_compact_1_.sky130_fd_sc_hd__dfrbp_1/Q_N
+ pReset clkbuf_3_4_0_prog_clk/X VGND VPWR sky130_fd_sc_hd__dfrbp_1
XFILLER_2_359 VGND VPWR sky130_fd_sc_hd__decap_8
XFILLER_2_337 VGND VPWR sky130_fd_sc_hd__decap_12
XFILLER_18_227 VGND VPWR sky130_fd_sc_hd__decap_12
XFILLER_5_131 VGND VPWR sky130_fd_sc_hd__fill_2
Xmem_left_ipin_0.sc_dff_compact_2_.sky130_fd_sc_hd__dfrbp_1 mem_left_ipin_0.sc_dff_compact_1_.sky130_fd_sc_hd__dfrbp_1/Q
+ mem_left_ipin_0.sc_dff_compact_2_.sky130_fd_sc_hd__dfrbp_1/Q mem_left_ipin_0.sc_dff_compact_2_.sky130_fd_sc_hd__dfrbp_1/Q_N
+ pReset clkbuf_3_0_0_prog_clk/X VGND VPWR sky130_fd_sc_hd__dfrbp_1
XFILLER_23_33 VGND VPWR sky130_fd_sc_hd__fill_2
XFILLER_23_274 VGND VPWR sky130_fd_sc_hd__fill_2
XFILLER_3_3 VGND VPWR sky130_fd_sc_hd__decap_12
XFILLER_2_101 VGND VPWR sky130_fd_sc_hd__fill_1
XFILLER_0_15 VGND VPWR sky130_fd_sc_hd__decap_12
XFILLER_9_35 VGND VPWR sky130_fd_sc_hd__fill_2
XFILLER_20_244 VGND VPWR sky130_fd_sc_hd__fill_2
XFILLER_7_226 VGND VPWR sky130_fd_sc_hd__fill_2
Xmem_right_ipin_0.sc_dff_compact_3_.sky130_fd_sc_hd__dfrbp_1 mem_right_ipin_0.sc_dff_compact_3_.sky130_fd_sc_hd__dfrbp_1/D
+ mem_right_ipin_0.sc_dff_compact_3_.sky130_fd_sc_hd__dfrbp_1/Q mem_right_ipin_0.sc_dff_compact_3_.sky130_fd_sc_hd__dfrbp_1/Q_N
+ pReset clkbuf_3_2_0_prog_clk/X VGND VPWR sky130_fd_sc_hd__dfrbp_1
XFILLER_19_196 VGND VPWR sky130_fd_sc_hd__decap_12
XFILLER_15_391 VGND VPWR sky130_fd_sc_hd__decap_3
XFILLER_25_199 VGND VPWR sky130_fd_sc_hd__decap_12
XFILLER_13_306 VGND VPWR sky130_fd_sc_hd__decap_12
XFILLER_13_328 VGND VPWR sky130_fd_sc_hd__fill_2
XFILLER_15_23 VGND VPWR sky130_fd_sc_hd__fill_2
XFILLER_16_166 VGND VPWR sky130_fd_sc_hd__decap_12
XFILLER_8_332 VGND VPWR sky130_fd_sc_hd__decap_4
XFILLER_12_361 VGND VPWR sky130_fd_sc_hd__decap_12
XPHY_150 VGND VPWR sky130_fd_sc_hd__tapvpwrvgnd_1
XPHY_161 VGND VPWR sky130_fd_sc_hd__tapvpwrvgnd_1
XPHY_172 VGND VPWR sky130_fd_sc_hd__tapvpwrvgnd_1
XPHY_183 VGND VPWR sky130_fd_sc_hd__tapvpwrvgnd_1
XPHY_194 VGND VPWR sky130_fd_sc_hd__tapvpwrvgnd_1
Xclkbuf_2_1_0_prog_clk clkbuf_0_prog_clk/X clkbuf_3_3_0_prog_clk/A VGND VPWR sky130_fd_sc_hd__clkbuf_1
XFILLER_13_147 VGND VPWR sky130_fd_sc_hd__decap_12
XFILLER_5_379 VGND VPWR sky130_fd_sc_hd__decap_12
XFILLER_5_324 VGND VPWR sky130_fd_sc_hd__fill_2
XFILLER_3_48 VGND VPWR sky130_fd_sc_hd__fill_2
XFILLER_3_15 VGND VPWR sky130_fd_sc_hd__decap_12
XFILLER_8_140 VGND VPWR sky130_fd_sc_hd__fill_2
XFILLER_10_128 VGND VPWR sky130_fd_sc_hd__decap_12
XFILLER_2_349 VGND VPWR sky130_fd_sc_hd__decap_6
XFILLER_18_239 VGND VPWR sky130_fd_sc_hd__decap_6
XFILLER_4_91 VGND VPWR sky130_fd_sc_hd__fill_1
XANTENNA__12__A chany_top_in[7] VGND VPWR sky130_fd_sc_hd__diode_2
XFILLER_0_27 VGND VPWR sky130_fd_sc_hd__decap_4
XFILLER_14_253 VGND VPWR sky130_fd_sc_hd__fill_2
XFILLER_18_89 VGND VPWR sky130_fd_sc_hd__decap_3
XFILLER_7_238 VGND VPWR sky130_fd_sc_hd__decap_6
XFILLER_11_234 VGND VPWR sky130_fd_sc_hd__fill_2
XFILLER_11_245 VGND VPWR sky130_fd_sc_hd__decap_3
XFILLER_19_367 VGND VPWR sky130_fd_sc_hd__decap_12
XFILLER_25_304 VGND VPWR sky130_fd_sc_hd__decap_6
XFILLER_4_219 VGND VPWR sky130_fd_sc_hd__fill_1
XFILLER_4_208 VGND VPWR sky130_fd_sc_hd__fill_2
XANTENNA_mem_left_ipin_6.sc_dff_compact_0_.sky130_fd_sc_hd__dfrbp_1_RESET_B pReset
+ VGND VPWR sky130_fd_sc_hd__diode_2
XFILLER_20_57 VGND VPWR sky130_fd_sc_hd__fill_2
XFILLER_16_337 VGND VPWR sky130_fd_sc_hd__fill_2
XFILLER_6_15 VGND VPWR sky130_fd_sc_hd__decap_4
Xclkbuf_3_3_0_prog_clk clkbuf_3_3_0_prog_clk/A clkbuf_3_3_0_prog_clk/X VGND VPWR sky130_fd_sc_hd__clkbuf_1
XFILLER_19_120 VGND VPWR sky130_fd_sc_hd__fill_2
XFILLER_25_156 VGND VPWR sky130_fd_sc_hd__decap_12
XFILLER_13_318 VGND VPWR sky130_fd_sc_hd__decap_4
XANTENNA__20__A chany_bottom_in[8] VGND VPWR sky130_fd_sc_hd__diode_2
XFILLER_0_211 VGND VPWR sky130_fd_sc_hd__decap_6
XFILLER_16_178 VGND VPWR sky130_fd_sc_hd__decap_4
XFILLER_8_300 VGND VPWR sky130_fd_sc_hd__decap_12
XFILLER_12_373 VGND VPWR sky130_fd_sc_hd__decap_12
Xmem_left_ipin_7.sc_dff_compact_4_.sky130_fd_sc_hd__dfrbp_1 mem_left_ipin_7.sc_dff_compact_3_.sky130_fd_sc_hd__dfrbp_1/Q
+ mem_left_ipin_7.sc_dff_compact_4_.sky130_fd_sc_hd__dfrbp_1/Q mem_left_ipin_7.sc_dff_compact_4_.sky130_fd_sc_hd__dfrbp_1/Q_N
+ pReset clkbuf_3_3_0_prog_clk/X VGND VPWR sky130_fd_sc_hd__dfrbp_1
XPHY_140 VGND VPWR sky130_fd_sc_hd__tapvpwrvgnd_1
XPHY_151 VGND VPWR sky130_fd_sc_hd__tapvpwrvgnd_1
XPHY_162 VGND VPWR sky130_fd_sc_hd__tapvpwrvgnd_1
XPHY_173 VGND VPWR sky130_fd_sc_hd__tapvpwrvgnd_1
XPHY_184 VGND VPWR sky130_fd_sc_hd__tapvpwrvgnd_1
XPHY_195 VGND VPWR sky130_fd_sc_hd__tapvpwrvgnd_1
XFILLER_11_3 VGND VPWR sky130_fd_sc_hd__decap_12
XANTENNA_mem_left_ipin_0.sc_dff_compact_3_.sky130_fd_sc_hd__dfrbp_1_CLK clkbuf_3_0_0_prog_clk/X
+ VGND VPWR sky130_fd_sc_hd__diode_2
XANTENNA__15__A chany_top_in[4] VGND VPWR sky130_fd_sc_hd__diode_2
XFILLER_9_108 VGND VPWR sky130_fd_sc_hd__decap_12
XANTENNA_mem_left_ipin_1.sc_dff_compact_4_.sky130_fd_sc_hd__dfrbp_1_CLK clkbuf_3_1_0_prog_clk/X
+ VGND VPWR sky130_fd_sc_hd__diode_2
XFILLER_13_159 VGND VPWR sky130_fd_sc_hd__decap_4
XFILLER_3_27 VGND VPWR sky130_fd_sc_hd__fill_2
XANTENNA_mem_left_ipin_2.sc_dff_compact_5_.sky130_fd_sc_hd__dfrbp_1_CLK clkbuf_3_4_0_prog_clk/X
+ VGND VPWR sky130_fd_sc_hd__diode_2
Xmem_left_ipin_4.sc_dff_compact_5_.sky130_fd_sc_hd__dfrbp_1 mem_left_ipin_4.sc_dff_compact_4_.sky130_fd_sc_hd__dfrbp_1/Q
+ mem_left_ipin_5.sc_dff_compact_0_.sky130_fd_sc_hd__dfrbp_1/D mem_left_ipin_4.sc_dff_compact_5_.sky130_fd_sc_hd__dfrbp_1/Q_N
+ pReset clkbuf_3_5_0_prog_clk/X VGND VPWR sky130_fd_sc_hd__dfrbp_1
XFILLER_8_152 VGND VPWR sky130_fd_sc_hd__fill_1
XFILLER_4_391 VGND VPWR sky130_fd_sc_hd__decap_3
XFILLER_12_36 VGND VPWR sky130_fd_sc_hd__decap_12
XFILLER_23_243 VGND VPWR sky130_fd_sc_hd__fill_1
XFILLER_23_68 VGND VPWR sky130_fd_sc_hd__fill_2
XFILLER_23_287 VGND VPWR sky130_fd_sc_hd__decap_12
XFILLER_2_169 VGND VPWR sky130_fd_sc_hd__decap_12
XFILLER_2_125 VGND VPWR sky130_fd_sc_hd__decap_12
XFILLER_9_15 VGND VPWR sky130_fd_sc_hd__decap_12
XFILLER_9_59 VGND VPWR sky130_fd_sc_hd__fill_2
XFILLER_14_210 VGND VPWR sky130_fd_sc_hd__decap_4
XFILLER_14_276 VGND VPWR sky130_fd_sc_hd__decap_12
Xmem_left_ipin_2.sc_dff_compact_0_.sky130_fd_sc_hd__dfrbp_1 mem_left_ipin_1.sc_dff_compact_5_.sky130_fd_sc_hd__dfrbp_1/Q
+ mem_left_ipin_2.sc_dff_compact_1_.sky130_fd_sc_hd__dfrbp_1/D mem_left_ipin_2.sc_dff_compact_0_.sky130_fd_sc_hd__dfrbp_1/Q_N
+ pReset clkbuf_3_6_0_prog_clk/X VGND VPWR sky130_fd_sc_hd__dfrbp_1
XFILLER_1_180 VGND VPWR sky130_fd_sc_hd__decap_3
XFILLER_20_202 VGND VPWR sky130_fd_sc_hd__fill_1
XFILLER_20_213 VGND VPWR sky130_fd_sc_hd__fill_1
XFILLER_18_57 VGND VPWR sky130_fd_sc_hd__decap_12
XANTENNA__23__A chany_bottom_in[5] VGND VPWR sky130_fd_sc_hd__diode_2
XFILLER_19_324 VGND VPWR sky130_fd_sc_hd__fill_2
XFILLER_19_379 VGND VPWR sky130_fd_sc_hd__decap_12
XFILLER_1_60 VGND VPWR sky130_fd_sc_hd__fill_1
X_28_ chany_bottom_in[0] chany_top_out[0] VGND VPWR sky130_fd_sc_hd__buf_2
Xmem_right_ipin_2.sc_dff_compact_1_.sky130_fd_sc_hd__dfrbp_1 mem_right_ipin_2.sc_dff_compact_0_.sky130_fd_sc_hd__dfrbp_1/Q
+ ccff_tail mem_right_ipin_2.sc_dff_compact_1_.sky130_fd_sc_hd__dfrbp_1/Q_N pReset
+ clkbuf_3_2_0_prog_clk/X VGND VPWR sky130_fd_sc_hd__dfrbp_1
XANTENNA__18__A chany_top_in[1] VGND VPWR sky130_fd_sc_hd__diode_2
XFILLER_3_253 VGND VPWR sky130_fd_sc_hd__decap_8
XFILLER_3_242 VGND VPWR sky130_fd_sc_hd__fill_2
XFILLER_3_220 VGND VPWR sky130_fd_sc_hd__decap_12
XFILLER_10_80 VGND VPWR sky130_fd_sc_hd__decap_12
XFILLER_19_110 VGND VPWR sky130_fd_sc_hd__decap_4
XANTENNA_mem_left_ipin_0.sc_dff_compact_1_.sky130_fd_sc_hd__dfrbp_1_D mem_left_ipin_0.sc_dff_compact_0_.sky130_fd_sc_hd__dfrbp_1/Q
+ VGND VPWR sky130_fd_sc_hd__diode_2
XFILLER_25_168 VGND VPWR sky130_fd_sc_hd__decap_12
XANTENNA_mem_right_ipin_0.sc_dff_compact_1_.sky130_fd_sc_hd__dfrbp_1_D mem_right_ipin_0.sc_dff_compact_1_.sky130_fd_sc_hd__dfrbp_1/D
+ VGND VPWR sky130_fd_sc_hd__diode_2
XPHY_130 VGND VPWR sky130_fd_sc_hd__tapvpwrvgnd_1
XPHY_141 VGND VPWR sky130_fd_sc_hd__tapvpwrvgnd_1
XPHY_152 VGND VPWR sky130_fd_sc_hd__tapvpwrvgnd_1
XFILLER_24_190 VGND VPWR sky130_fd_sc_hd__decap_12
XFILLER_8_312 VGND VPWR sky130_fd_sc_hd__decap_12
XFILLER_8_345 VGND VPWR sky130_fd_sc_hd__decap_12
XFILLER_12_385 VGND VPWR sky130_fd_sc_hd__decap_8
XPHY_163 VGND VPWR sky130_fd_sc_hd__tapvpwrvgnd_1
XPHY_174 VGND VPWR sky130_fd_sc_hd__tapvpwrvgnd_1
XPHY_185 VGND VPWR sky130_fd_sc_hd__tapvpwrvgnd_1
XPHY_196 VGND VPWR sky130_fd_sc_hd__tapvpwrvgnd_1
XFILLER_21_90 VGND VPWR sky130_fd_sc_hd__decap_12
XFILLER_22_105 VGND VPWR sky130_fd_sc_hd__decap_12
XANTENNA_mem_right_ipin_0.sc_dff_compact_5_.sky130_fd_sc_hd__dfrbp_1_RESET_B pReset
+ VGND VPWR sky130_fd_sc_hd__diode_2
XFILLER_10_108 VGND VPWR sky130_fd_sc_hd__fill_1
XFILLER_12_15 VGND VPWR sky130_fd_sc_hd__decap_12
XFILLER_12_48 VGND VPWR sky130_fd_sc_hd__fill_2
XFILLER_2_318 VGND VPWR sky130_fd_sc_hd__decap_12
XANTENNA__26__A chany_bottom_in[2] VGND VPWR sky130_fd_sc_hd__diode_2
XFILLER_5_156 VGND VPWR sky130_fd_sc_hd__decap_12
XFILLER_5_123 VGND VPWR sky130_fd_sc_hd__fill_2
XFILLER_4_93 VGND VPWR sky130_fd_sc_hd__decap_12
XFILLER_23_299 VGND VPWR sky130_fd_sc_hd__decap_6
XFILLER_2_137 VGND VPWR sky130_fd_sc_hd__decap_12
XFILLER_9_27 VGND VPWR sky130_fd_sc_hd__decap_4
XFILLER_14_288 VGND VPWR sky130_fd_sc_hd__decap_12
XANTENNA_mem_left_ipin_5.sc_dff_compact_0_.sky130_fd_sc_hd__dfrbp_1_RESET_B pReset
+ VGND VPWR sky130_fd_sc_hd__diode_2
XANTENNA_mem_left_ipin_0.sc_dff_compact_4_.sky130_fd_sc_hd__dfrbp_1_D mem_left_ipin_0.sc_dff_compact_4_.sky130_fd_sc_hd__dfrbp_1/D
+ VGND VPWR sky130_fd_sc_hd__diode_2
XANTENNA_mem_left_ipin_5.sc_dff_compact_0_.sky130_fd_sc_hd__dfrbp_1_CLK clkbuf_3_7_0_prog_clk/X
+ VGND VPWR sky130_fd_sc_hd__diode_2
XFILLER_18_69 VGND VPWR sky130_fd_sc_hd__decap_12
XFILLER_1_3 VGND VPWR sky130_fd_sc_hd__decap_12
XANTENNA_clkbuf_3_3_0_prog_clk_A clkbuf_3_3_0_prog_clk/A VGND VPWR sky130_fd_sc_hd__diode_2
XANTENNA_mem_left_ipin_6.sc_dff_compact_1_.sky130_fd_sc_hd__dfrbp_1_CLK clkbuf_3_7_0_prog_clk/X
+ VGND VPWR sky130_fd_sc_hd__diode_2
XANTENNA_mem_right_ipin_0.sc_dff_compact_4_.sky130_fd_sc_hd__dfrbp_1_D mem_right_ipin_0.sc_dff_compact_3_.sky130_fd_sc_hd__dfrbp_1/Q
+ VGND VPWR sky130_fd_sc_hd__diode_2
XFILLER_19_303 VGND VPWR sky130_fd_sc_hd__fill_2
XANTENNA_mem_left_ipin_7.sc_dff_compact_1_.sky130_fd_sc_hd__dfrbp_1_RESET_B pReset
+ VGND VPWR sky130_fd_sc_hd__diode_2
XANTENNA_mem_left_ipin_7.sc_dff_compact_2_.sky130_fd_sc_hd__dfrbp_1_CLK clkbuf_3_3_0_prog_clk/X
+ VGND VPWR sky130_fd_sc_hd__diode_2
X_27_ chany_bottom_in[1] chany_top_out[1] VGND VPWR sky130_fd_sc_hd__buf_2
XFILLER_20_15 VGND VPWR sky130_fd_sc_hd__decap_12
XFILLER_24_350 VGND VPWR sky130_fd_sc_hd__decap_8
XFILLER_3_265 VGND VPWR sky130_fd_sc_hd__fill_2
XFILLER_3_232 VGND VPWR sky130_fd_sc_hd__decap_8
XFILLER_25_125 VGND VPWR sky130_fd_sc_hd__decap_12
XFILLER_15_15 VGND VPWR sky130_fd_sc_hd__decap_6
XFILLER_15_48 VGND VPWR sky130_fd_sc_hd__fill_2
XPHY_120 VGND VPWR sky130_fd_sc_hd__tapvpwrvgnd_1
XPHY_131 VGND VPWR sky130_fd_sc_hd__tapvpwrvgnd_1
XPHY_142 VGND VPWR sky130_fd_sc_hd__tapvpwrvgnd_1
XPHY_153 VGND VPWR sky130_fd_sc_hd__tapvpwrvgnd_1
XFILLER_16_125 VGND VPWR sky130_fd_sc_hd__decap_12
XPHY_164 VGND VPWR sky130_fd_sc_hd__tapvpwrvgnd_1
XPHY_175 VGND VPWR sky130_fd_sc_hd__tapvpwrvgnd_1
XFILLER_8_324 VGND VPWR sky130_fd_sc_hd__decap_6
XFILLER_8_357 VGND VPWR sky130_fd_sc_hd__decap_12
XPHY_186 VGND VPWR sky130_fd_sc_hd__tapvpwrvgnd_1
XPHY_197 VGND VPWR sky130_fd_sc_hd__tapvpwrvgnd_1
XPHY_0 VGND VPWR sky130_fd_sc_hd__decap_3
XFILLER_22_117 VGND VPWR sky130_fd_sc_hd__decap_12
XFILLER_7_60 VGND VPWR sky130_fd_sc_hd__fill_1
XANTENNA_mem_left_ipin_1.sc_dff_compact_2_.sky130_fd_sc_hd__dfrbp_1_D mem_left_ipin_1.sc_dff_compact_2_.sky130_fd_sc_hd__dfrbp_1/D
+ VGND VPWR sky130_fd_sc_hd__diode_2
XFILLER_13_106 VGND VPWR sky130_fd_sc_hd__fill_1
XFILLER_13_117 VGND VPWR sky130_fd_sc_hd__decap_4
XFILLER_5_349 VGND VPWR sky130_fd_sc_hd__decap_12
XFILLER_8_154 VGND VPWR sky130_fd_sc_hd__decap_12
XFILLER_4_371 VGND VPWR sky130_fd_sc_hd__decap_12
Xmem_left_ipin_6.sc_dff_compact_3_.sky130_fd_sc_hd__dfrbp_1 mem_left_ipin_6.sc_dff_compact_3_.sky130_fd_sc_hd__dfrbp_1/D
+ mem_left_ipin_6.sc_dff_compact_3_.sky130_fd_sc_hd__dfrbp_1/Q mem_left_ipin_6.sc_dff_compact_3_.sky130_fd_sc_hd__dfrbp_1/Q_N
+ pReset clkbuf_3_6_0_prog_clk/X VGND VPWR sky130_fd_sc_hd__dfrbp_1
XFILLER_12_27 VGND VPWR sky130_fd_sc_hd__decap_4
XFILLER_5_168 VGND VPWR sky130_fd_sc_hd__decap_12
XFILLER_5_102 VGND VPWR sky130_fd_sc_hd__decap_12
Xclkbuf_2_0_0_prog_clk clkbuf_0_prog_clk/X clkbuf_2_0_0_prog_clk/X VGND VPWR sky130_fd_sc_hd__clkbuf_1
XFILLER_1_330 VGND VPWR sky130_fd_sc_hd__decap_12
XFILLER_17_220 VGND VPWR sky130_fd_sc_hd__decap_12
Xmem_left_ipin_3.sc_dff_compact_4_.sky130_fd_sc_hd__dfrbp_1 mem_left_ipin_3.sc_dff_compact_4_.sky130_fd_sc_hd__dfrbp_1/D
+ mem_left_ipin_3.sc_dff_compact_5_.sky130_fd_sc_hd__dfrbp_1/D mem_left_ipin_3.sc_dff_compact_4_.sky130_fd_sc_hd__dfrbp_1/Q_N
+ pReset clkbuf_3_5_0_prog_clk/X VGND VPWR sky130_fd_sc_hd__dfrbp_1
XFILLER_23_15 VGND VPWR sky130_fd_sc_hd__decap_12
XFILLER_23_37 VGND VPWR sky130_fd_sc_hd__decap_8
XFILLER_23_223 VGND VPWR sky130_fd_sc_hd__fill_2
XFILLER_23_245 VGND VPWR sky130_fd_sc_hd__decap_12
XFILLER_23_278 VGND VPWR sky130_fd_sc_hd__decap_6
XFILLER_2_149 VGND VPWR sky130_fd_sc_hd__decap_4
XFILLER_14_223 VGND VPWR sky130_fd_sc_hd__fill_2
XFILLER_9_39 VGND VPWR sky130_fd_sc_hd__decap_12
XFILLER_20_215 VGND VPWR sky130_fd_sc_hd__decap_6
XFILLER_20_248 VGND VPWR sky130_fd_sc_hd__decap_12
Xmem_left_ipin_0.sc_dff_compact_5_.sky130_fd_sc_hd__dfrbp_1 mem_left_ipin_0.sc_dff_compact_5_.sky130_fd_sc_hd__dfrbp_1/D
+ mem_left_ipin_0.sc_dff_compact_5_.sky130_fd_sc_hd__dfrbp_1/Q mem_left_ipin_0.sc_dff_compact_5_.sky130_fd_sc_hd__dfrbp_1/Q_N
+ pReset clkbuf_3_0_0_prog_clk/X VGND VPWR sky130_fd_sc_hd__dfrbp_1
XFILLER_18_15 VGND VPWR sky130_fd_sc_hd__decap_12
XFILLER_7_208 VGND VPWR sky130_fd_sc_hd__decap_12
XANTENNA_mem_left_ipin_2.sc_dff_compact_0_.sky130_fd_sc_hd__dfrbp_1_D mem_left_ipin_1.sc_dff_compact_5_.sky130_fd_sc_hd__dfrbp_1/Q
+ VGND VPWR sky130_fd_sc_hd__diode_2
XANTENNA_mem_right_ipin_2.sc_dff_compact_0_.sky130_fd_sc_hd__dfrbp_1_D mem_right_ipin_2.sc_dff_compact_0_.sky130_fd_sc_hd__dfrbp_1/D
+ VGND VPWR sky130_fd_sc_hd__diode_2
XFILLER_1_62 VGND VPWR sky130_fd_sc_hd__decap_12
X_26_ chany_bottom_in[2] chany_top_out[2] VGND VPWR sky130_fd_sc_hd__buf_2
XFILLER_20_27 VGND VPWR sky130_fd_sc_hd__decap_4
XFILLER_24_362 VGND VPWR sky130_fd_sc_hd__decap_12
XANTENNA_mem_left_ipin_1.sc_dff_compact_5_.sky130_fd_sc_hd__dfrbp_1_D mem_left_ipin_1.sc_dff_compact_5_.sky130_fd_sc_hd__dfrbp_1/D
+ VGND VPWR sky130_fd_sc_hd__diode_2
XFILLER_6_29 VGND VPWR sky130_fd_sc_hd__fill_2
XFILLER_10_93 VGND VPWR sky130_fd_sc_hd__decap_4
XFILLER_19_123 VGND VPWR sky130_fd_sc_hd__fill_2
XANTENNA_mem_right_ipin_0.sc_dff_compact_3_.sky130_fd_sc_hd__dfrbp_1_CLK clkbuf_3_2_0_prog_clk/X
+ VGND VPWR sky130_fd_sc_hd__diode_2
XFILLER_25_137 VGND VPWR sky130_fd_sc_hd__decap_12
X_09_ _09_/HI right_grid_pin_2_ VGND VPWR sky130_fd_sc_hd__conb_1
XFILLER_21_354 VGND VPWR sky130_fd_sc_hd__fill_1
XFILLER_21_365 VGND VPWR sky130_fd_sc_hd__fill_1
Xmem_right_ipin_1.sc_dff_compact_0_.sky130_fd_sc_hd__dfrbp_1 mem_right_ipin_1.sc_dff_compact_0_.sky130_fd_sc_hd__dfrbp_1/D
+ mem_right_ipin_1.sc_dff_compact_0_.sky130_fd_sc_hd__dfrbp_1/Q mem_right_ipin_1.sc_dff_compact_0_.sky130_fd_sc_hd__dfrbp_1/Q_N
+ pReset clkbuf_3_2_0_prog_clk/X VGND VPWR sky130_fd_sc_hd__dfrbp_1
XFILLER_16_137 VGND VPWR sky130_fd_sc_hd__decap_12
XPHY_110 VGND VPWR sky130_fd_sc_hd__tapvpwrvgnd_1
XPHY_121 VGND VPWR sky130_fd_sc_hd__tapvpwrvgnd_1
XPHY_132 VGND VPWR sky130_fd_sc_hd__tapvpwrvgnd_1
XFILLER_12_332 VGND VPWR sky130_fd_sc_hd__decap_4
XPHY_143 VGND VPWR sky130_fd_sc_hd__tapvpwrvgnd_1
XPHY_154 VGND VPWR sky130_fd_sc_hd__tapvpwrvgnd_1
XPHY_165 VGND VPWR sky130_fd_sc_hd__tapvpwrvgnd_1
XPHY_176 VGND VPWR sky130_fd_sc_hd__tapvpwrvgnd_1
XPHY_187 VGND VPWR sky130_fd_sc_hd__tapvpwrvgnd_1
XPHY_198 VGND VPWR sky130_fd_sc_hd__tapvpwrvgnd_1
XFILLER_8_369 VGND VPWR sky130_fd_sc_hd__decap_12
XPHY_1 VGND VPWR sky130_fd_sc_hd__decap_3
XFILLER_22_129 VGND VPWR sky130_fd_sc_hd__fill_1
XFILLER_15_181 VGND VPWR sky130_fd_sc_hd__fill_2
XFILLER_15_192 VGND VPWR sky130_fd_sc_hd__decap_12
XFILLER_7_391 VGND VPWR sky130_fd_sc_hd__decap_3
Xclkbuf_3_2_0_prog_clk clkbuf_3_3_0_prog_clk/A clkbuf_3_2_0_prog_clk/X VGND VPWR sky130_fd_sc_hd__clkbuf_1
XFILLER_5_306 VGND VPWR sky130_fd_sc_hd__decap_12
XFILLER_21_173 VGND VPWR sky130_fd_sc_hd__fill_2
XFILLER_21_184 VGND VPWR sky130_fd_sc_hd__decap_12
XFILLER_8_133 VGND VPWR sky130_fd_sc_hd__decap_4
XFILLER_8_144 VGND VPWR sky130_fd_sc_hd__decap_8
XFILLER_8_166 VGND VPWR sky130_fd_sc_hd__decap_12
XFILLER_12_151 VGND VPWR sky130_fd_sc_hd__fill_2
XFILLER_16_81 VGND VPWR sky130_fd_sc_hd__decap_4
XFILLER_4_383 VGND VPWR sky130_fd_sc_hd__decap_8
XANTENNA_mem_left_ipin_4.sc_dff_compact_0_.sky130_fd_sc_hd__dfrbp_1_RESET_B pReset
+ VGND VPWR sky130_fd_sc_hd__diode_2
XFILLER_5_114 VGND VPWR sky130_fd_sc_hd__decap_8
XFILLER_1_342 VGND VPWR sky130_fd_sc_hd__decap_12
XANTENNA_mem_left_ipin_2.sc_dff_compact_3_.sky130_fd_sc_hd__dfrbp_1_D mem_left_ipin_2.sc_dff_compact_2_.sky130_fd_sc_hd__dfrbp_1/Q
+ VGND VPWR sky130_fd_sc_hd__diode_2
XFILLER_17_232 VGND VPWR sky130_fd_sc_hd__decap_12
XFILLER_4_73 VGND VPWR sky130_fd_sc_hd__decap_12
XFILLER_4_40 VGND VPWR sky130_fd_sc_hd__decap_6
XANTENNA_mem_left_ipin_6.sc_dff_compact_1_.sky130_fd_sc_hd__dfrbp_1_RESET_B pReset
+ VGND VPWR sky130_fd_sc_hd__diode_2
XFILLER_23_27 VGND VPWR sky130_fd_sc_hd__fill_2
XFILLER_23_49 VGND VPWR sky130_fd_sc_hd__fill_2
XFILLER_23_257 VGND VPWR sky130_fd_sc_hd__fill_2
XFILLER_14_257 VGND VPWR sky130_fd_sc_hd__decap_12
XFILLER_20_205 VGND VPWR sky130_fd_sc_hd__decap_8
XFILLER_9_272 VGND VPWR sky130_fd_sc_hd__fill_2
XFILLER_18_27 VGND VPWR sky130_fd_sc_hd__decap_4
XFILLER_11_238 VGND VPWR sky130_fd_sc_hd__fill_2
XFILLER_19_349 VGND VPWR sky130_fd_sc_hd__decap_12
XFILLER_10_260 VGND VPWR sky130_fd_sc_hd__decap_12
XFILLER_1_74 VGND VPWR sky130_fd_sc_hd__decap_12
X_25_ chany_bottom_in[3] chany_top_out[3] VGND VPWR sky130_fd_sc_hd__buf_2
XFILLER_24_374 VGND VPWR sky130_fd_sc_hd__decap_12
XFILLER_3_245 VGND VPWR sky130_fd_sc_hd__fill_2
XANTENNA_mem_left_ipin_3.sc_dff_compact_1_.sky130_fd_sc_hd__dfrbp_1_D mem_left_ipin_3.sc_dff_compact_0_.sky130_fd_sc_hd__dfrbp_1/Q
+ VGND VPWR sky130_fd_sc_hd__diode_2
XFILLER_19_168 VGND VPWR sky130_fd_sc_hd__decap_12
XANTENNA_clkbuf_2_2_0_prog_clk_A clkbuf_0_prog_clk/X VGND VPWR sky130_fd_sc_hd__diode_2
X_08_ _08_/HI right_grid_pin_14_ VGND VPWR sky130_fd_sc_hd__conb_1
XFILLER_25_149 VGND VPWR sky130_fd_sc_hd__decap_6
XFILLER_18_190 VGND VPWR sky130_fd_sc_hd__decap_12
XFILLER_21_311 VGND VPWR sky130_fd_sc_hd__fill_2
XPHY_100 VGND VPWR sky130_fd_sc_hd__tapvpwrvgnd_1
XFILLER_16_105 VGND VPWR sky130_fd_sc_hd__decap_12
XFILLER_16_149 VGND VPWR sky130_fd_sc_hd__decap_4
XPHY_111 VGND VPWR sky130_fd_sc_hd__tapvpwrvgnd_1
XFILLER_8_337 VGND VPWR sky130_fd_sc_hd__fill_2
XPHY_122 VGND VPWR sky130_fd_sc_hd__tapvpwrvgnd_1
XPHY_133 VGND VPWR sky130_fd_sc_hd__tapvpwrvgnd_1
XFILLER_12_300 VGND VPWR sky130_fd_sc_hd__decap_12
XPHY_144 VGND VPWR sky130_fd_sc_hd__tapvpwrvgnd_1
XPHY_155 VGND VPWR sky130_fd_sc_hd__tapvpwrvgnd_1
XPHY_166 VGND VPWR sky130_fd_sc_hd__tapvpwrvgnd_1
XPHY_177 VGND VPWR sky130_fd_sc_hd__tapvpwrvgnd_1
XPHY_188 VGND VPWR sky130_fd_sc_hd__tapvpwrvgnd_1
XPHY_199 VGND VPWR sky130_fd_sc_hd__tapvpwrvgnd_1
XPHY_2 VGND VPWR sky130_fd_sc_hd__decap_3
XFILLER_15_171 VGND VPWR sky130_fd_sc_hd__decap_8
XFILLER_7_62 VGND VPWR sky130_fd_sc_hd__decap_12
XFILLER_21_196 VGND VPWR sky130_fd_sc_hd__decap_3
XFILLER_16_93 VGND VPWR sky130_fd_sc_hd__decap_12
XFILLER_8_178 VGND VPWR sky130_fd_sc_hd__decap_12
XFILLER_1_365 VGND VPWR sky130_fd_sc_hd__fill_1
XFILLER_1_354 VGND VPWR sky130_fd_sc_hd__fill_1
XFILLER_17_255 VGND VPWR sky130_fd_sc_hd__fill_2
XFILLER_4_85 VGND VPWR sky130_fd_sc_hd__decap_6
Xmem_left_ipin_5.sc_dff_compact_2_.sky130_fd_sc_hd__dfrbp_1 mem_left_ipin_5.sc_dff_compact_1_.sky130_fd_sc_hd__dfrbp_1/Q
+ mem_left_ipin_5.sc_dff_compact_3_.sky130_fd_sc_hd__dfrbp_1/D mem_left_ipin_5.sc_dff_compact_2_.sky130_fd_sc_hd__dfrbp_1/Q_N
+ pReset clkbuf_3_7_0_prog_clk/X VGND VPWR sky130_fd_sc_hd__dfrbp_1
XFILLER_14_269 VGND VPWR sky130_fd_sc_hd__decap_6
XFILLER_1_140 VGND VPWR sky130_fd_sc_hd__decap_12
XFILLER_1_184 VGND VPWR sky130_fd_sc_hd__decap_12
XANTENNA_mem_left_ipin_3.sc_dff_compact_4_.sky130_fd_sc_hd__dfrbp_1_D mem_left_ipin_3.sc_dff_compact_4_.sky130_fd_sc_hd__dfrbp_1/D
+ VGND VPWR sky130_fd_sc_hd__diode_2
XFILLER_9_240 VGND VPWR sky130_fd_sc_hd__decap_4
Xmem_left_ipin_2.sc_dff_compact_3_.sky130_fd_sc_hd__dfrbp_1 mem_left_ipin_2.sc_dff_compact_2_.sky130_fd_sc_hd__dfrbp_1/Q
+ mem_left_ipin_2.sc_dff_compact_3_.sky130_fd_sc_hd__dfrbp_1/Q mem_left_ipin_2.sc_dff_compact_3_.sky130_fd_sc_hd__dfrbp_1/Q_N
+ pReset clkbuf_3_4_0_prog_clk/X VGND VPWR sky130_fd_sc_hd__dfrbp_1
XFILLER_19_306 VGND VPWR sky130_fd_sc_hd__decap_12
XFILLER_24_93 VGND VPWR sky130_fd_sc_hd__decap_12
XFILLER_6_243 VGND VPWR sky130_fd_sc_hd__decap_12
XFILLER_6_276 VGND VPWR sky130_fd_sc_hd__decap_12
XFILLER_10_272 VGND VPWR sky130_fd_sc_hd__decap_3
X_24_ chany_bottom_in[4] chany_top_out[4] VGND VPWR sky130_fd_sc_hd__buf_2
XFILLER_1_86 VGND VPWR sky130_fd_sc_hd__decap_12