* NGSPICE file created from cby_2__1_.ext - technology: sky130A

* Black-box entry subcircuit for sky130_fd_sc_hd__decap_12 abstract view
.subckt sky130_fd_sc_hd__decap_12 VGND VPWR
.ends

* Black-box entry subcircuit for sky130_fd_sc_hd__dfrbp_1 abstract view
.subckt sky130_fd_sc_hd__dfrbp_1 D Q Q_N RESET_B CLK VGND VPWR
.ends

* Black-box entry subcircuit for sky130_fd_sc_hd__decap_6 abstract view
.subckt sky130_fd_sc_hd__decap_6 VGND VPWR
.ends

* Black-box entry subcircuit for sky130_fd_sc_hd__fill_2 abstract view
.subckt sky130_fd_sc_hd__fill_2 VGND VPWR
.ends

* Black-box entry subcircuit for sky130_fd_sc_hd__diode_2 abstract view
.subckt sky130_fd_sc_hd__diode_2 DIODE VGND VPWR
.ends

* Black-box entry subcircuit for sky130_fd_sc_hd__decap_4 abstract view
.subckt sky130_fd_sc_hd__decap_4 VGND VPWR
.ends

* Black-box entry subcircuit for sky130_fd_sc_hd__decap_3 abstract view
.subckt sky130_fd_sc_hd__decap_3 VGND VPWR
.ends

* Black-box entry subcircuit for sky130_fd_sc_hd__clkbuf_1 abstract view
.subckt sky130_fd_sc_hd__clkbuf_1 A X VGND VPWR
.ends

* Black-box entry subcircuit for sky130_fd_sc_hd__fill_1 abstract view
.subckt sky130_fd_sc_hd__fill_1 VGND VPWR
.ends

* Black-box entry subcircuit for sky130_fd_sc_hd__tapvpwrvgnd_1 abstract view
.subckt sky130_fd_sc_hd__tapvpwrvgnd_1 VGND VPWR
.ends

* Black-box entry subcircuit for sky130_fd_sc_hd__decap_8 abstract view
.subckt sky130_fd_sc_hd__decap_8 VGND VPWR
.ends

* Black-box entry subcircuit for sky130_fd_sc_hd__buf_2 abstract view
.subckt sky130_fd_sc_hd__buf_2 A X VGND VPWR
.ends

* Black-box entry subcircuit for sky130_fd_sc_hd__conb_1 abstract view
.subckt sky130_fd_sc_hd__conb_1 HI LO VGND VPWR
.ends

* Black-box entry subcircuit for sky130_fd_sc_hd__clkbuf_16 abstract view
.subckt sky130_fd_sc_hd__clkbuf_16 A X VGND VPWR
.ends

.subckt cby_2__1_ ccff_head ccff_tail chany_in_0_ chany_in_10_ chany_in_11_ chany_in_12_
+ chany_in_13_ chany_in_14_ chany_in_15_ chany_in_16_ chany_in_17_ chany_in_1_ chany_in_2_
+ chany_in_3_ chany_in_4_ chany_in_5_ chany_in_6_ chany_in_7_ chany_in_8_ chany_in_9_
+ chany_out_0_ chany_out_10_ chany_out_11_ chany_out_12_ chany_out_13_ chany_out_14_
+ chany_out_15_ chany_out_16_ chany_out_17_ chany_out_1_ chany_out_2_ chany_out_3_
+ chany_out_4_ chany_out_5_ chany_out_6_ chany_out_7_ chany_out_8_ chany_out_9_ left_grid_pin_1_
+ left_grid_pin_5_ left_grid_pin_9_ pReset prog_clk right_grid_pin_0_ right_grid_pin_10_
+ right_grid_pin_12_ right_grid_pin_14_ right_grid_pin_2_ right_grid_pin_4_ right_grid_pin_6_
+ right_grid_pin_8_ VPWR VGND
XFILLER_22_166 VGND VPWR sky130_fd_sc_hd__decap_12
Xmem_left_ipin_4.sc_dff_compact_2_.sky130_fd_sc_hd__dfrbp_1 mem_left_ipin_4.sc_dff_compact_2_.sky130_fd_sc_hd__dfrbp_1/D
+ mem_left_ipin_4.sc_dff_compact_2_.sky130_fd_sc_hd__dfrbp_1/Q mem_left_ipin_4.sc_dff_compact_2_.sky130_fd_sc_hd__dfrbp_1/Q_N
+ pReset clkbuf_3_0_0_prog_clk/X VGND VPWR sky130_fd_sc_hd__dfrbp_1
XFILLER_26_85 VGND VPWR sky130_fd_sc_hd__decap_6
XFILLER_13_100 VGND VPWR sky130_fd_sc_hd__fill_2
XFILLER_3_34 VGND VPWR sky130_fd_sc_hd__fill_2
XANTENNA_mem_left_ipin_7.sc_dff_compact_3_.sky130_fd_sc_hd__dfrbp_1_D mem_left_ipin_7.sc_dff_compact_2_.sky130_fd_sc_hd__dfrbp_1/Q
+ VGND VPWR sky130_fd_sc_hd__diode_2
Xmem_left_ipin_1.sc_dff_compact_3_.sky130_fd_sc_hd__dfrbp_1 mem_left_ipin_1.sc_dff_compact_2_.sky130_fd_sc_hd__dfrbp_1/Q
+ mem_left_ipin_1.sc_dff_compact_3_.sky130_fd_sc_hd__dfrbp_1/Q mem_left_ipin_1.sc_dff_compact_3_.sky130_fd_sc_hd__dfrbp_1/Q_N
+ pReset clkbuf_3_4_0_prog_clk/X VGND VPWR sky130_fd_sc_hd__dfrbp_1
XFILLER_33_206 VGND VPWR sky130_fd_sc_hd__decap_12
XFILLER_12_87 VGND VPWR sky130_fd_sc_hd__decap_4
XFILLER_12_32 VGND VPWR sky130_fd_sc_hd__fill_2
XFILLER_12_21 VGND VPWR sky130_fd_sc_hd__decap_6
XFILLER_5_184 VGND VPWR sky130_fd_sc_hd__decap_12
XFILLER_2_154 VGND VPWR sky130_fd_sc_hd__decap_12
XFILLER_2_198 VGND VPWR sky130_fd_sc_hd__fill_2
XFILLER_9_99 VGND VPWR sky130_fd_sc_hd__decap_3
XANTENNA_clkbuf_2_1_0_prog_clk_A clkbuf_2_1_0_prog_clk/A VGND VPWR sky130_fd_sc_hd__diode_2
Xclkbuf_3_4_0_prog_clk clkbuf_2_2_0_prog_clk/X clkbuf_3_4_0_prog_clk/X VGND VPWR sky130_fd_sc_hd__clkbuf_1
XFILLER_11_220 VGND VPWR sky130_fd_sc_hd__fill_1
XFILLER_29_106 VGND VPWR sky130_fd_sc_hd__fill_2
XFILLER_29_74 VGND VPWR sky130_fd_sc_hd__fill_1
XFILLER_20_32 VGND VPWR sky130_fd_sc_hd__fill_2
XANTENNA_mem_left_ipin_4.sc_dff_compact_0_.sky130_fd_sc_hd__dfrbp_1_CLK clkbuf_3_4_0_prog_clk/X
+ VGND VPWR sky130_fd_sc_hd__diode_2
XFILLER_13_3 VGND VPWR sky130_fd_sc_hd__fill_2
XFILLER_6_12 VGND VPWR sky130_fd_sc_hd__decap_12
XANTENNA_mem_left_ipin_5.sc_dff_compact_1_.sky130_fd_sc_hd__dfrbp_1_CLK clkbuf_3_0_0_prog_clk/X
+ VGND VPWR sky130_fd_sc_hd__diode_2
XFILLER_15_98 VGND VPWR sky130_fd_sc_hd__fill_1
XFILLER_15_87 VGND VPWR sky130_fd_sc_hd__fill_2
XFILLER_15_43 VGND VPWR sky130_fd_sc_hd__fill_2
XFILLER_1_208 VGND VPWR sky130_fd_sc_hd__decap_12
XPHY_192 VGND VPWR sky130_fd_sc_hd__tapvpwrvgnd_1
XFILLER_31_123 VGND VPWR sky130_fd_sc_hd__decap_12
XPHY_181 VGND VPWR sky130_fd_sc_hd__tapvpwrvgnd_1
XPHY_170 VGND VPWR sky130_fd_sc_hd__tapvpwrvgnd_1
XANTENNA_mem_left_ipin_6.sc_dff_compact_2_.sky130_fd_sc_hd__dfrbp_1_CLK clkbuf_3_3_0_prog_clk/X
+ VGND VPWR sky130_fd_sc_hd__diode_2
XANTENNA_mem_left_ipin_7.sc_dff_compact_3_.sky130_fd_sc_hd__dfrbp_1_CLK clkbuf_3_7_0_prog_clk/X
+ VGND VPWR sky130_fd_sc_hd__diode_2
XFILLER_22_178 VGND VPWR sky130_fd_sc_hd__decap_12
XFILLER_26_75 VGND VPWR sky130_fd_sc_hd__decap_8
XFILLER_13_123 VGND VPWR sky130_fd_sc_hd__fill_2
XFILLER_13_112 VGND VPWR sky130_fd_sc_hd__fill_2
XFILLER_9_127 VGND VPWR sky130_fd_sc_hd__fill_2
XFILLER_9_116 VGND VPWR sky130_fd_sc_hd__fill_2
XFILLER_3_13 VGND VPWR sky130_fd_sc_hd__decap_8
XFILLER_9_105 VGND VPWR sky130_fd_sc_hd__decap_4
XFILLER_36_215 VGND VPWR sky130_fd_sc_hd__decap_6
XFILLER_37_63 VGND VPWR sky130_fd_sc_hd__decap_12
XFILLER_33_218 VGND VPWR sky130_fd_sc_hd__decap_3
XFILLER_18_215 VGND VPWR sky130_fd_sc_hd__decap_6
XFILLER_12_11 VGND VPWR sky130_fd_sc_hd__fill_2
XFILLER_10_104 VGND VPWR sky130_fd_sc_hd__decap_6
XFILLER_5_196 VGND VPWR sky130_fd_sc_hd__fill_2
XANTENNA_mem_right_ipin_0.sc_dff_compact_4_.sky130_fd_sc_hd__dfrbp_1_RESET_B pReset
+ VGND VPWR sky130_fd_sc_hd__diode_2
XFILLER_2_166 VGND VPWR sky130_fd_sc_hd__decap_12
XFILLER_9_12 VGND VPWR sky130_fd_sc_hd__fill_2
XFILLER_34_64 VGND VPWR sky130_fd_sc_hd__fill_1
XFILLER_18_32 VGND VPWR sky130_fd_sc_hd__decap_8
XFILLER_19_184 VGND VPWR sky130_fd_sc_hd__decap_12
XFILLER_6_24 VGND VPWR sky130_fd_sc_hd__decap_6
XFILLER_6_57 VGND VPWR sky130_fd_sc_hd__decap_4
XFILLER_34_154 VGND VPWR sky130_fd_sc_hd__decap_12
XFILLER_25_110 VGND VPWR sky130_fd_sc_hd__fill_2
XFILLER_15_55 VGND VPWR sky130_fd_sc_hd__fill_2
XFILLER_15_33 VGND VPWR sky130_fd_sc_hd__fill_2
XPHY_193 VGND VPWR sky130_fd_sc_hd__tapvpwrvgnd_1
XFILLER_31_135 VGND VPWR sky130_fd_sc_hd__decap_12
XFILLER_31_87 VGND VPWR sky130_fd_sc_hd__decap_12
XPHY_182 VGND VPWR sky130_fd_sc_hd__tapvpwrvgnd_1
XPHY_171 VGND VPWR sky130_fd_sc_hd__tapvpwrvgnd_1
XANTENNA_mem_left_ipin_7.sc_dff_compact_0_.sky130_fd_sc_hd__dfrbp_1_RESET_B pReset
+ VGND VPWR sky130_fd_sc_hd__diode_2
XPHY_160 VGND VPWR sky130_fd_sc_hd__tapvpwrvgnd_1
XFILLER_16_154 VGND VPWR sky130_fd_sc_hd__decap_12
XFILLER_30_190 VGND VPWR sky130_fd_sc_hd__decap_12
XFILLER_22_102 VGND VPWR sky130_fd_sc_hd__decap_4
XFILLER_26_32 VGND VPWR sky130_fd_sc_hd__fill_2
Xmem_left_ipin_6.sc_dff_compact_0_.sky130_fd_sc_hd__dfrbp_1 mem_left_ipin_6.sc_dff_compact_0_.sky130_fd_sc_hd__dfrbp_1/D
+ mem_left_ipin_6.sc_dff_compact_1_.sky130_fd_sc_hd__dfrbp_1/D mem_left_ipin_6.sc_dff_compact_0_.sky130_fd_sc_hd__dfrbp_1/Q_N
+ pReset clkbuf_3_3_0_prog_clk/X VGND VPWR sky130_fd_sc_hd__dfrbp_1
XANTENNA_mem_right_ipin_0.sc_dff_compact_4_.sky130_fd_sc_hd__dfrbp_1_CLK clkbuf_3_3_0_prog_clk/X
+ VGND VPWR sky130_fd_sc_hd__diode_2
XFILLER_12_190 VGND VPWR sky130_fd_sc_hd__decap_12
XFILLER_3_25 VGND VPWR sky130_fd_sc_hd__fill_2
Xmem_left_ipin_3.sc_dff_compact_1_.sky130_fd_sc_hd__dfrbp_1 mem_left_ipin_3.sc_dff_compact_0_.sky130_fd_sc_hd__dfrbp_1/Q
+ mem_left_ipin_3.sc_dff_compact_2_.sky130_fd_sc_hd__dfrbp_1/D mem_left_ipin_3.sc_dff_compact_1_.sky130_fd_sc_hd__dfrbp_1/Q_N
+ pReset clkbuf_3_5_0_prog_clk/X VGND VPWR sky130_fd_sc_hd__dfrbp_1
XFILLER_6_109 VGND VPWR sky130_fd_sc_hd__fill_1
XFILLER_37_75 VGND VPWR sky130_fd_sc_hd__decap_12
XFILLER_5_120 VGND VPWR sky130_fd_sc_hd__fill_2
XFILLER_15_208 VGND VPWR sky130_fd_sc_hd__decap_12
XFILLER_23_11 VGND VPWR sky130_fd_sc_hd__decap_3
XFILLER_0_15 VGND VPWR sky130_fd_sc_hd__decap_12
XFILLER_2_178 VGND VPWR sky130_fd_sc_hd__decap_12
XFILLER_3_3 VGND VPWR sky130_fd_sc_hd__decap_6
Xmem_left_ipin_0.sc_dff_compact_2_.sky130_fd_sc_hd__dfrbp_1 mem_left_ipin_0.sc_dff_compact_1_.sky130_fd_sc_hd__dfrbp_1/Q
+ mem_left_ipin_0.sc_dff_compact_3_.sky130_fd_sc_hd__dfrbp_1/D mem_left_ipin_0.sc_dff_compact_2_.sky130_fd_sc_hd__dfrbp_1/Q_N
+ pReset clkbuf_3_1_0_prog_clk/X VGND VPWR sky130_fd_sc_hd__dfrbp_1
XFILLER_36_3 VGND VPWR sky130_fd_sc_hd__decap_12
XFILLER_34_32 VGND VPWR sky130_fd_sc_hd__decap_12
Xmem_right_ipin_0.sc_dff_compact_3_.sky130_fd_sc_hd__dfrbp_1 mem_right_ipin_0.sc_dff_compact_2_.sky130_fd_sc_hd__dfrbp_1/Q
+ mem_right_ipin_0.sc_dff_compact_3_.sky130_fd_sc_hd__dfrbp_1/Q mem_right_ipin_0.sc_dff_compact_3_.sky130_fd_sc_hd__dfrbp_1/Q_N
+ pReset clkbuf_3_3_0_prog_clk/X VGND VPWR sky130_fd_sc_hd__dfrbp_1
XFILLER_15_8 VGND VPWR sky130_fd_sc_hd__fill_2
XANTENNA_clkbuf_1_0_0_prog_clk_A clkbuf_0_prog_clk/X VGND VPWR sky130_fd_sc_hd__diode_2
XFILLER_28_152 VGND VPWR sky130_fd_sc_hd__fill_1
XFILLER_34_166 VGND VPWR sky130_fd_sc_hd__decap_12
XFILLER_34_144 VGND VPWR sky130_fd_sc_hd__decap_8
XFILLER_19_196 VGND VPWR sky130_fd_sc_hd__decap_12
XFILLER_31_99 VGND VPWR sky130_fd_sc_hd__decap_12
XFILLER_16_166 VGND VPWR sky130_fd_sc_hd__decap_12
XFILLER_16_122 VGND VPWR sky130_fd_sc_hd__decap_12
XPHY_194 VGND VPWR sky130_fd_sc_hd__tapvpwrvgnd_1
XFILLER_31_147 VGND VPWR sky130_fd_sc_hd__decap_12
XPHY_183 VGND VPWR sky130_fd_sc_hd__tapvpwrvgnd_1
XPHY_172 VGND VPWR sky130_fd_sc_hd__tapvpwrvgnd_1
XPHY_161 VGND VPWR sky130_fd_sc_hd__tapvpwrvgnd_1
Xclkbuf_2_1_0_prog_clk clkbuf_2_1_0_prog_clk/A clkbuf_3_3_0_prog_clk/A VGND VPWR sky130_fd_sc_hd__clkbuf_1
XPHY_150 VGND VPWR sky130_fd_sc_hd__tapvpwrvgnd_1
XFILLER_3_59 VGND VPWR sky130_fd_sc_hd__fill_2
XFILLER_12_57 VGND VPWR sky130_fd_sc_hd__decap_12
XFILLER_37_87 VGND VPWR sky130_fd_sc_hd__decap_6
XFILLER_37_32 VGND VPWR sky130_fd_sc_hd__decap_12
XANTENNA__12__A chany_in_10_ VGND VPWR sky130_fd_sc_hd__diode_2
XFILLER_23_220 VGND VPWR sky130_fd_sc_hd__fill_1
XFILLER_23_89 VGND VPWR sky130_fd_sc_hd__fill_2
XFILLER_23_78 VGND VPWR sky130_fd_sc_hd__fill_2
XFILLER_0_27 VGND VPWR sky130_fd_sc_hd__decap_4
XFILLER_29_3 VGND VPWR sky130_fd_sc_hd__decap_6
XFILLER_34_44 VGND VPWR sky130_fd_sc_hd__decap_12
XFILLER_34_11 VGND VPWR sky130_fd_sc_hd__fill_2
XFILLER_18_89 VGND VPWR sky130_fd_sc_hd__decap_3
XANTENNA_mem_left_ipin_6.sc_dff_compact_0_.sky130_fd_sc_hd__dfrbp_1_RESET_B pReset
+ VGND VPWR sky130_fd_sc_hd__diode_2
XFILLER_29_77 VGND VPWR sky130_fd_sc_hd__fill_2
XFILLER_29_44 VGND VPWR sky130_fd_sc_hd__decap_12
XFILLER_29_11 VGND VPWR sky130_fd_sc_hd__fill_2
Xclkbuf_3_3_0_prog_clk clkbuf_3_3_0_prog_clk/A clkbuf_3_3_0_prog_clk/X VGND VPWR sky130_fd_sc_hd__clkbuf_1
XFILLER_34_178 VGND VPWR sky130_fd_sc_hd__decap_12
XFILLER_31_45 VGND VPWR sky130_fd_sc_hd__decap_12
XFILLER_31_34 VGND VPWR sky130_fd_sc_hd__fill_1
XANTENNA__20__A chany_in_1_ VGND VPWR sky130_fd_sc_hd__diode_2
XFILLER_25_123 VGND VPWR sky130_fd_sc_hd__decap_12
XFILLER_0_211 VGND VPWR sky130_fd_sc_hd__decap_6
XPHY_195 VGND VPWR sky130_fd_sc_hd__tapvpwrvgnd_1
XFILLER_31_159 VGND VPWR sky130_fd_sc_hd__decap_12
XPHY_184 VGND VPWR sky130_fd_sc_hd__tapvpwrvgnd_1
XPHY_173 VGND VPWR sky130_fd_sc_hd__tapvpwrvgnd_1
Xmem_left_ipin_7.sc_dff_compact_4_.sky130_fd_sc_hd__dfrbp_1 mem_left_ipin_7.sc_dff_compact_4_.sky130_fd_sc_hd__dfrbp_1/D
+ mem_left_ipin_7.sc_dff_compact_5_.sky130_fd_sc_hd__dfrbp_1/D mem_left_ipin_7.sc_dff_compact_4_.sky130_fd_sc_hd__dfrbp_1/Q_N
+ pReset clkbuf_3_7_0_prog_clk/X VGND VPWR sky130_fd_sc_hd__dfrbp_1
XPHY_162 VGND VPWR sky130_fd_sc_hd__tapvpwrvgnd_1
XPHY_151 VGND VPWR sky130_fd_sc_hd__tapvpwrvgnd_1
XPHY_140 VGND VPWR sky130_fd_sc_hd__tapvpwrvgnd_1
XFILLER_16_178 VGND VPWR sky130_fd_sc_hd__decap_12
XFILLER_16_134 VGND VPWR sky130_fd_sc_hd__decap_12
XFILLER_11_3 VGND VPWR sky130_fd_sc_hd__decap_8
XFILLER_26_45 VGND VPWR sky130_fd_sc_hd__fill_2
XFILLER_13_104 VGND VPWR sky130_fd_sc_hd__decap_8
XANTENNA_mem_left_ipin_0.sc_dff_compact_3_.sky130_fd_sc_hd__dfrbp_1_CLK clkbuf_3_1_0_prog_clk/X
+ VGND VPWR sky130_fd_sc_hd__diode_2
XFILLER_13_148 VGND VPWR sky130_fd_sc_hd__decap_12
Xmem_left_ipin_4.sc_dff_compact_5_.sky130_fd_sc_hd__dfrbp_1 mem_left_ipin_4.sc_dff_compact_5_.sky130_fd_sc_hd__dfrbp_1/D
+ mem_left_ipin_5.sc_dff_compact_0_.sky130_fd_sc_hd__dfrbp_1/D mem_left_ipin_4.sc_dff_compact_5_.sky130_fd_sc_hd__dfrbp_1/Q_N
+ pReset clkbuf_3_1_0_prog_clk/X VGND VPWR sky130_fd_sc_hd__dfrbp_1
XANTENNA_mem_left_ipin_1.sc_dff_compact_4_.sky130_fd_sc_hd__dfrbp_1_CLK clkbuf_3_4_0_prog_clk/X
+ VGND VPWR sky130_fd_sc_hd__diode_2
XFILLER_3_38 VGND VPWR sky130_fd_sc_hd__fill_2
XANTENNA__15__A chany_in_13_ VGND VPWR sky130_fd_sc_hd__diode_2
XANTENNA_mem_left_ipin_2.sc_dff_compact_5_.sky130_fd_sc_hd__dfrbp_1_CLK clkbuf_3_5_0_prog_clk/X
+ VGND VPWR sky130_fd_sc_hd__diode_2
XFILLER_8_152 VGND VPWR sky130_fd_sc_hd__fill_1
XFILLER_37_44 VGND VPWR sky130_fd_sc_hd__decap_12
XFILLER_23_46 VGND VPWR sky130_fd_sc_hd__fill_2
Xmem_left_ipin_2.sc_dff_compact_0_.sky130_fd_sc_hd__dfrbp_1 mem_left_ipin_2.sc_dff_compact_0_.sky130_fd_sc_hd__dfrbp_1/D
+ mem_left_ipin_2.sc_dff_compact_0_.sky130_fd_sc_hd__dfrbp_1/Q mem_left_ipin_2.sc_dff_compact_0_.sky130_fd_sc_hd__dfrbp_1/Q_N
+ pReset clkbuf_3_5_0_prog_clk/X VGND VPWR sky130_fd_sc_hd__dfrbp_1
XFILLER_9_37 VGND VPWR sky130_fd_sc_hd__decap_12
XFILLER_9_59 VGND VPWR sky130_fd_sc_hd__fill_2
XFILLER_20_202 VGND VPWR sky130_fd_sc_hd__decap_12
XFILLER_18_46 VGND VPWR sky130_fd_sc_hd__fill_2
XFILLER_18_13 VGND VPWR sky130_fd_sc_hd__fill_2
XANTENNA__23__A chany_in_4_ VGND VPWR sky130_fd_sc_hd__diode_2
XFILLER_34_89 VGND VPWR sky130_fd_sc_hd__decap_3
XFILLER_34_56 VGND VPWR sky130_fd_sc_hd__decap_8
XFILLER_37_187 VGND VPWR sky130_fd_sc_hd__decap_12
Xmem_right_ipin_2.sc_dff_compact_1_.sky130_fd_sc_hd__dfrbp_1 mem_right_ipin_2.sc_dff_compact_1_.sky130_fd_sc_hd__dfrbp_1/D
+ ccff_tail mem_right_ipin_2.sc_dff_compact_1_.sky130_fd_sc_hd__dfrbp_1/Q_N pReset
+ clkbuf_3_2_0_prog_clk/X VGND VPWR sky130_fd_sc_hd__dfrbp_1
XFILLER_1_71 VGND VPWR sky130_fd_sc_hd__fill_2
X_28_ chany_in_9_ chany_out_9_ VGND VPWR sky130_fd_sc_hd__buf_2
XFILLER_29_56 VGND VPWR sky130_fd_sc_hd__decap_4
XFILLER_28_154 VGND VPWR sky130_fd_sc_hd__decap_12
XFILLER_20_36 VGND VPWR sky130_fd_sc_hd__decap_12
XFILLER_20_14 VGND VPWR sky130_fd_sc_hd__decap_12
XANTENNA__18__A chany_in_16_ VGND VPWR sky130_fd_sc_hd__diode_2
XFILLER_13_7 VGND VPWR sky130_fd_sc_hd__fill_2
XANTENNA_mem_right_ipin_0.sc_dff_compact_1_.sky130_fd_sc_hd__dfrbp_1_D mem_right_ipin_0.sc_dff_compact_1_.sky130_fd_sc_hd__dfrbp_1/D
+ VGND VPWR sky130_fd_sc_hd__diode_2
XFILLER_25_135 VGND VPWR sky130_fd_sc_hd__decap_12
XFILLER_15_47 VGND VPWR sky130_fd_sc_hd__fill_2
XANTENNA_mem_left_ipin_0.sc_dff_compact_1_.sky130_fd_sc_hd__dfrbp_1_D mem_left_ipin_0.sc_dff_compact_1_.sky130_fd_sc_hd__dfrbp_1/D
+ VGND VPWR sky130_fd_sc_hd__diode_2
XPHY_196 VGND VPWR sky130_fd_sc_hd__tapvpwrvgnd_1
XPHY_185 VGND VPWR sky130_fd_sc_hd__tapvpwrvgnd_1
XPHY_174 VGND VPWR sky130_fd_sc_hd__tapvpwrvgnd_1
XFILLER_24_190 VGND VPWR sky130_fd_sc_hd__decap_12
XPHY_163 VGND VPWR sky130_fd_sc_hd__tapvpwrvgnd_1
XPHY_152 VGND VPWR sky130_fd_sc_hd__tapvpwrvgnd_1
XPHY_141 VGND VPWR sky130_fd_sc_hd__tapvpwrvgnd_1
XFILLER_16_146 VGND VPWR sky130_fd_sc_hd__decap_6
XPHY_130 VGND VPWR sky130_fd_sc_hd__tapvpwrvgnd_1
XANTENNA_mem_right_ipin_0.sc_dff_compact_5_.sky130_fd_sc_hd__dfrbp_1_RESET_B pReset
+ VGND VPWR sky130_fd_sc_hd__diode_2
XFILLER_21_171 VGND VPWR sky130_fd_sc_hd__decap_12
XFILLER_13_116 VGND VPWR sky130_fd_sc_hd__fill_2
XFILLER_9_109 VGND VPWR sky130_fd_sc_hd__fill_1
XFILLER_27_208 VGND VPWR sky130_fd_sc_hd__decap_12
XFILLER_16_90 VGND VPWR sky130_fd_sc_hd__fill_2
XFILLER_37_56 VGND VPWR sky130_fd_sc_hd__decap_6
XFILLER_12_15 VGND VPWR sky130_fd_sc_hd__decap_4
XANTENNA__26__A chany_in_7_ VGND VPWR sky130_fd_sc_hd__diode_2
XFILLER_5_112 VGND VPWR sky130_fd_sc_hd__fill_2
XFILLER_5_123 VGND VPWR sky130_fd_sc_hd__fill_2
XFILLER_23_58 VGND VPWR sky130_fd_sc_hd__decap_3
XFILLER_4_93 VGND VPWR sky130_fd_sc_hd__decap_6
XANTENNA_mem_left_ipin_5.sc_dff_compact_0_.sky130_fd_sc_hd__dfrbp_1_RESET_B pReset
+ VGND VPWR sky130_fd_sc_hd__diode_2
XFILLER_9_49 VGND VPWR sky130_fd_sc_hd__decap_8
XANTENNA_mem_left_ipin_5.sc_dff_compact_0_.sky130_fd_sc_hd__dfrbp_1_CLK clkbuf_3_0_0_prog_clk/X
+ VGND VPWR sky130_fd_sc_hd__diode_2
XFILLER_1_192 VGND VPWR sky130_fd_sc_hd__fill_2
XANTENNA_mem_left_ipin_0.sc_dff_compact_4_.sky130_fd_sc_hd__dfrbp_1_D mem_left_ipin_0.sc_dff_compact_3_.sky130_fd_sc_hd__dfrbp_1/Q
+ VGND VPWR sky130_fd_sc_hd__diode_2
XANTENNA_mem_right_ipin_0.sc_dff_compact_4_.sky130_fd_sc_hd__dfrbp_1_D mem_right_ipin_0.sc_dff_compact_3_.sky130_fd_sc_hd__dfrbp_1/Q
+ VGND VPWR sky130_fd_sc_hd__diode_2
XANTENNA_clkbuf_3_3_0_prog_clk_A clkbuf_3_3_0_prog_clk/A VGND VPWR sky130_fd_sc_hd__diode_2
XANTENNA_mem_left_ipin_6.sc_dff_compact_1_.sky130_fd_sc_hd__dfrbp_1_CLK clkbuf_3_3_0_prog_clk/X
+ VGND VPWR sky130_fd_sc_hd__diode_2
XANTENNA_mem_left_ipin_7.sc_dff_compact_1_.sky130_fd_sc_hd__dfrbp_1_RESET_B pReset
+ VGND VPWR sky130_fd_sc_hd__diode_2
XFILLER_1_3 VGND VPWR sky130_fd_sc_hd__decap_12
XFILLER_37_199 VGND VPWR sky130_fd_sc_hd__decap_12
XFILLER_34_3 VGND VPWR sky130_fd_sc_hd__fill_2
XANTENNA_mem_left_ipin_7.sc_dff_compact_2_.sky130_fd_sc_hd__dfrbp_1_CLK clkbuf_3_7_0_prog_clk/X
+ VGND VPWR sky130_fd_sc_hd__diode_2
X_27_ chany_in_8_ chany_out_8_ VGND VPWR sky130_fd_sc_hd__buf_2
XFILLER_28_166 VGND VPWR sky130_fd_sc_hd__decap_12
XFILLER_20_48 VGND VPWR sky130_fd_sc_hd__decap_12
XFILLER_20_26 VGND VPWR sky130_fd_sc_hd__decap_4
XFILLER_20_9 VGND VPWR sky130_fd_sc_hd__decap_3
XFILLER_25_147 VGND VPWR sky130_fd_sc_hd__decap_12
XFILLER_25_114 VGND VPWR sky130_fd_sc_hd__fill_2
XFILLER_15_59 VGND VPWR sky130_fd_sc_hd__fill_2
XPHY_197 VGND VPWR sky130_fd_sc_hd__tapvpwrvgnd_1
XPHY_186 VGND VPWR sky130_fd_sc_hd__tapvpwrvgnd_1
XPHY_175 VGND VPWR sky130_fd_sc_hd__tapvpwrvgnd_1
XPHY_164 VGND VPWR sky130_fd_sc_hd__tapvpwrvgnd_1
XPHY_153 VGND VPWR sky130_fd_sc_hd__tapvpwrvgnd_1
XPHY_142 VGND VPWR sky130_fd_sc_hd__tapvpwrvgnd_1
XPHY_131 VGND VPWR sky130_fd_sc_hd__tapvpwrvgnd_1
XPHY_120 VGND VPWR sky130_fd_sc_hd__tapvpwrvgnd_1
XFILLER_30_150 VGND VPWR sky130_fd_sc_hd__decap_3
XPHY_0 VGND VPWR sky130_fd_sc_hd__decap_3
XFILLER_26_36 VGND VPWR sky130_fd_sc_hd__fill_2
XANTENNA_mem_left_ipin_1.sc_dff_compact_2_.sky130_fd_sc_hd__dfrbp_1_D mem_left_ipin_1.sc_dff_compact_1_.sky130_fd_sc_hd__dfrbp_1/Q
+ VGND VPWR sky130_fd_sc_hd__diode_2
XFILLER_3_29 VGND VPWR sky130_fd_sc_hd__decap_3
XFILLER_8_154 VGND VPWR sky130_fd_sc_hd__decap_12
Xmem_left_ipin_6.sc_dff_compact_3_.sky130_fd_sc_hd__dfrbp_1 mem_left_ipin_6.sc_dff_compact_3_.sky130_fd_sc_hd__dfrbp_1/D
+ mem_left_ipin_6.sc_dff_compact_3_.sky130_fd_sc_hd__dfrbp_1/Q mem_left_ipin_6.sc_dff_compact_3_.sky130_fd_sc_hd__dfrbp_1/Q_N
+ pReset clkbuf_3_3_0_prog_clk/X VGND VPWR sky130_fd_sc_hd__dfrbp_1
XFILLER_17_220 VGND VPWR sky130_fd_sc_hd__fill_1
Xclkbuf_2_0_0_prog_clk clkbuf_2_1_0_prog_clk/A clkbuf_2_0_0_prog_clk/X VGND VPWR sky130_fd_sc_hd__clkbuf_1
Xmem_left_ipin_3.sc_dff_compact_4_.sky130_fd_sc_hd__dfrbp_1 mem_left_ipin_3.sc_dff_compact_4_.sky130_fd_sc_hd__dfrbp_1/D
+ mem_left_ipin_3.sc_dff_compact_4_.sky130_fd_sc_hd__dfrbp_1/Q mem_left_ipin_3.sc_dff_compact_4_.sky130_fd_sc_hd__dfrbp_1/Q_N
+ pReset clkbuf_3_6_0_prog_clk/X VGND VPWR sky130_fd_sc_hd__dfrbp_1
XFILLER_4_61 VGND VPWR sky130_fd_sc_hd__fill_1
XFILLER_4_190 VGND VPWR sky130_fd_sc_hd__decap_8
XFILLER_13_92 VGND VPWR sky130_fd_sc_hd__fill_2
XFILLER_2_127 VGND VPWR sky130_fd_sc_hd__decap_12
XFILLER_20_215 VGND VPWR sky130_fd_sc_hd__decap_6
XFILLER_1_171 VGND VPWR sky130_fd_sc_hd__decap_12
Xmem_left_ipin_0.sc_dff_compact_5_.sky130_fd_sc_hd__dfrbp_1 mem_left_ipin_0.sc_dff_compact_4_.sky130_fd_sc_hd__dfrbp_1/Q
+ mem_left_ipin_1.sc_dff_compact_0_.sky130_fd_sc_hd__dfrbp_1/D mem_left_ipin_0.sc_dff_compact_5_.sky130_fd_sc_hd__dfrbp_1/Q_N
+ pReset clkbuf_3_1_0_prog_clk/X VGND VPWR sky130_fd_sc_hd__dfrbp_1
XFILLER_34_69 VGND VPWR sky130_fd_sc_hd__decap_12
XANTENNA_mem_left_ipin_2.sc_dff_compact_0_.sky130_fd_sc_hd__dfrbp_1_D mem_left_ipin_2.sc_dff_compact_0_.sky130_fd_sc_hd__dfrbp_1/D
+ VGND VPWR sky130_fd_sc_hd__diode_2
XANTENNA_mem_right_ipin_2.sc_dff_compact_0_.sky130_fd_sc_hd__dfrbp_1_D mem_right_ipin_1.sc_dff_compact_1_.sky130_fd_sc_hd__dfrbp_1/Q
+ VGND VPWR sky130_fd_sc_hd__diode_2
XFILLER_27_3 VGND VPWR sky130_fd_sc_hd__decap_8
XFILLER_24_91 VGND VPWR sky130_fd_sc_hd__fill_1
XFILLER_37_156 VGND VPWR sky130_fd_sc_hd__decap_12
XFILLER_29_36 VGND VPWR sky130_fd_sc_hd__fill_2
XFILLER_1_62 VGND VPWR sky130_fd_sc_hd__decap_6
XFILLER_1_51 VGND VPWR sky130_fd_sc_hd__decap_8
X_26_ chany_in_7_ chany_out_7_ VGND VPWR sky130_fd_sc_hd__buf_2
XFILLER_28_178 VGND VPWR sky130_fd_sc_hd__decap_12
XFILLER_19_123 VGND VPWR sky130_fd_sc_hd__decap_12
XFILLER_10_93 VGND VPWR sky130_fd_sc_hd__decap_8
XANTENNA_mem_left_ipin_1.sc_dff_compact_5_.sky130_fd_sc_hd__dfrbp_1_D mem_left_ipin_1.sc_dff_compact_5_.sky130_fd_sc_hd__dfrbp_1/D
+ VGND VPWR sky130_fd_sc_hd__diode_2
X_09_ _09_/HI right_grid_pin_2_ VGND VPWR sky130_fd_sc_hd__conb_1
XANTENNA_mem_right_ipin_0.sc_dff_compact_3_.sky130_fd_sc_hd__dfrbp_1_CLK clkbuf_3_3_0_prog_clk/X
+ VGND VPWR sky130_fd_sc_hd__diode_2
XFILLER_25_159 VGND VPWR sky130_fd_sc_hd__decap_12
XFILLER_15_38 VGND VPWR sky130_fd_sc_hd__decap_3
XFILLER_33_192 VGND VPWR sky130_fd_sc_hd__fill_2
XPHY_198 VGND VPWR sky130_fd_sc_hd__tapvpwrvgnd_1
XFILLER_31_59 VGND VPWR sky130_fd_sc_hd__fill_2
XFILLER_31_37 VGND VPWR sky130_fd_sc_hd__fill_2
XPHY_187 VGND VPWR sky130_fd_sc_hd__tapvpwrvgnd_1
Xmem_right_ipin_1.sc_dff_compact_0_.sky130_fd_sc_hd__dfrbp_1 mem_right_ipin_0.sc_dff_compact_5_.sky130_fd_sc_hd__dfrbp_1/Q
+ mem_right_ipin_1.sc_dff_compact_0_.sky130_fd_sc_hd__dfrbp_1/Q mem_right_ipin_1.sc_dff_compact_0_.sky130_fd_sc_hd__dfrbp_1/Q_N
+ pReset clkbuf_3_3_0_prog_clk/X VGND VPWR sky130_fd_sc_hd__dfrbp_1
XPHY_176 VGND VPWR sky130_fd_sc_hd__tapvpwrvgnd_1
XPHY_165 VGND VPWR sky130_fd_sc_hd__tapvpwrvgnd_1
XPHY_154 VGND VPWR sky130_fd_sc_hd__tapvpwrvgnd_1
XPHY_143 VGND VPWR sky130_fd_sc_hd__tapvpwrvgnd_1
XPHY_132 VGND VPWR sky130_fd_sc_hd__tapvpwrvgnd_1
XPHY_121 VGND VPWR sky130_fd_sc_hd__tapvpwrvgnd_1
XPHY_110 VGND VPWR sky130_fd_sc_hd__tapvpwrvgnd_1
XFILLER_22_129 VGND VPWR sky130_fd_sc_hd__decap_12
XFILLER_21_70 VGND VPWR sky130_fd_sc_hd__fill_2
XPHY_1 VGND VPWR sky130_fd_sc_hd__decap_3
XFILLER_7_50 VGND VPWR sky130_fd_sc_hd__decap_3
XFILLER_26_15 VGND VPWR sky130_fd_sc_hd__decap_12
Xclkbuf_3_2_0_prog_clk clkbuf_3_3_0_prog_clk/A clkbuf_3_2_0_prog_clk/X VGND VPWR sky130_fd_sc_hd__clkbuf_1
XFILLER_21_184 VGND VPWR sky130_fd_sc_hd__decap_12
XFILLER_12_140 VGND VPWR sky130_fd_sc_hd__decap_12
XFILLER_8_166 VGND VPWR sky130_fd_sc_hd__decap_12
XANTENNA_mem_left_ipin_4.sc_dff_compact_0_.sky130_fd_sc_hd__dfrbp_1_RESET_B pReset
+ VGND VPWR sky130_fd_sc_hd__diode_2
XANTENNA_mem_left_ipin_2.sc_dff_compact_3_.sky130_fd_sc_hd__dfrbp_1_D mem_left_ipin_2.sc_dff_compact_2_.sky130_fd_sc_hd__dfrbp_1/Q
+ VGND VPWR sky130_fd_sc_hd__diode_2
XFILLER_32_202 VGND VPWR sky130_fd_sc_hd__decap_12
XANTENNA_mem_left_ipin_6.sc_dff_compact_1_.sky130_fd_sc_hd__dfrbp_1_RESET_B pReset
+ VGND VPWR sky130_fd_sc_hd__diode_2
XFILLER_23_16 VGND VPWR sky130_fd_sc_hd__fill_2
XFILLER_14_202 VGND VPWR sky130_fd_sc_hd__decap_12
XFILLER_2_139 VGND VPWR sky130_fd_sc_hd__decap_12
XFILLER_24_81 VGND VPWR sky130_fd_sc_hd__fill_2
XFILLER_37_168 VGND VPWR sky130_fd_sc_hd__decap_12
XFILLER_1_96 VGND VPWR sky130_fd_sc_hd__fill_2
X_25_ chany_in_6_ chany_out_6_ VGND VPWR sky130_fd_sc_hd__buf_2
XFILLER_36_190 VGND VPWR sky130_fd_sc_hd__decap_12
XFILLER_28_124 VGND VPWR sky130_fd_sc_hd__decap_12
XANTENNA_mem_left_ipin_3.sc_dff_compact_1_.sky130_fd_sc_hd__dfrbp_1_D mem_left_ipin_3.sc_dff_compact_0_.sky130_fd_sc_hd__dfrbp_1/Q
+ VGND VPWR sky130_fd_sc_hd__diode_2
XFILLER_10_72 VGND VPWR sky130_fd_sc_hd__fill_2
XFILLER_10_61 VGND VPWR sky130_fd_sc_hd__decap_3
X_08_ _08_/HI right_grid_pin_14_ VGND VPWR sky130_fd_sc_hd__conb_1
XFILLER_34_127 VGND VPWR sky130_fd_sc_hd__decap_12
XFILLER_34_105 VGND VPWR sky130_fd_sc_hd__decap_12
XFILLER_19_135 VGND VPWR sky130_fd_sc_hd__decap_12
XFILLER_19_70 VGND VPWR sky130_fd_sc_hd__fill_2
XANTENNA_clkbuf_2_2_0_prog_clk_A clkbuf_2_3_0_prog_clk/A VGND VPWR sky130_fd_sc_hd__diode_2
XFILLER_33_182 VGND VPWR sky130_fd_sc_hd__fill_1
XFILLER_18_190 VGND VPWR sky130_fd_sc_hd__decap_8
XPHY_100 VGND VPWR sky130_fd_sc_hd__tapvpwrvgnd_1
XPHY_199 VGND VPWR sky130_fd_sc_hd__tapvpwrvgnd_1
XFILLER_31_119 VGND VPWR sky130_fd_sc_hd__decap_3
XPHY_188 VGND VPWR sky130_fd_sc_hd__tapvpwrvgnd_1
XFILLER_30_130 VGND VPWR sky130_fd_sc_hd__decap_12
XPHY_177 VGND VPWR sky130_fd_sc_hd__tapvpwrvgnd_1
XPHY_166 VGND VPWR sky130_fd_sc_hd__tapvpwrvgnd_1
XPHY_155 VGND VPWR sky130_fd_sc_hd__tapvpwrvgnd_1
XFILLER_21_82 VGND VPWR sky130_fd_sc_hd__fill_1
XPHY_144 VGND VPWR sky130_fd_sc_hd__tapvpwrvgnd_1
XFILLER_15_171 VGND VPWR sky130_fd_sc_hd__decap_12
XPHY_133 VGND VPWR sky130_fd_sc_hd__tapvpwrvgnd_1
XPHY_122 VGND VPWR sky130_fd_sc_hd__tapvpwrvgnd_1
XPHY_2 VGND VPWR sky130_fd_sc_hd__decap_3
XPHY_111 VGND VPWR sky130_fd_sc_hd__tapvpwrvgnd_1
XFILLER_26_49 VGND VPWR sky130_fd_sc_hd__decap_3
XFILLER_21_196 VGND VPWR sky130_fd_sc_hd__decap_12
XFILLER_7_62 VGND VPWR sky130_fd_sc_hd__fill_2
XFILLER_16_93 VGND VPWR sky130_fd_sc_hd__decap_6
XFILLER_16_82 VGND VPWR sky130_fd_sc_hd__fill_2
XFILLER_12_152 VGND VPWR sky130_fd_sc_hd__fill_1
XFILLER_8_134 VGND VPWR sky130_fd_sc_hd__decap_12
XFILLER_8_178 VGND VPWR sky130_fd_sc_hd__decap_12
XFILLER_12_29 VGND VPWR sky130_fd_sc_hd__fill_2
XFILLER_37_15 VGND VPWR sky130_fd_sc_hd__decap_12
XFILLER_5_148 VGND VPWR sky130_fd_sc_hd__decap_12
XFILLER_27_70 VGND VPWR sky130_fd_sc_hd__decap_12
Xmem_left_ipin_5.sc_dff_compact_2_.sky130_fd_sc_hd__dfrbp_1 mem_left_ipin_5.sc_dff_compact_2_.sky130_fd_sc_hd__dfrbp_1/D
+ mem_left_ipin_5.sc_dff_compact_2_.sky130_fd_sc_hd__dfrbp_1/Q mem_left_ipin_5.sc_dff_compact_2_.sky130_fd_sc_hd__dfrbp_1/Q_N
+ pReset clkbuf_3_2_0_prog_clk/X VGND VPWR sky130_fd_sc_hd__dfrbp_1
XFILLER_2_118 VGND VPWR sky130_fd_sc_hd__decap_6
XFILLER_3_9 VGND VPWR sky130_fd_sc_hd__fill_1
XANTENNA_mem_left_ipin_3.sc_dff_compact_4_.sky130_fd_sc_hd__dfrbp_1_D mem_left_ipin_3.sc_dff_compact_4_.sky130_fd_sc_hd__dfrbp_1/D
+ VGND VPWR sky130_fd_sc_hd__diode_2
XFILLER_13_50 VGND VPWR sky130_fd_sc_hd__fill_2
XFILLER_1_184 VGND VPWR sky130_fd_sc_hd__decap_8
XFILLER_18_17 VGND VPWR sky130_fd_sc_hd__decap_12
XFILLER_24_93 VGND VPWR sky130_fd_sc_hd__fill_2
Xmem_left_ipin_2.sc_dff_compact_3_.sky130_fd_sc_hd__dfrbp_1 mem_left_ipin_2.sc_dff_compact_2_.sky130_fd_sc_hd__dfrbp_1/Q
+ mem_left_ipin_2.sc_dff_compact_4_.sky130_fd_sc_hd__dfrbp_1/D mem_left_ipin_2.sc_dff_compact_3_.sky130_fd_sc_hd__dfrbp_1/Q_N
+ pReset clkbuf_3_5_0_prog_clk/X VGND VPWR sky130_fd_sc_hd__dfrbp_1
XFILLER_37_125 VGND VPWR sky130_fd_sc_hd__decap_12
X_24_ chany_in_5_ chany_out_5_ VGND VPWR sky130_fd_sc_hd__buf_2
XANTENNA_mem_left_ipin_0.sc_dff_compact_2_.sky130_fd_sc_hd__dfrbp_1_CLK clkbuf_3_1_0_prog_clk/X
+ VGND VPWR sky130_fd_sc_hd__diode_2
XFILLER_28_136 VGND VPWR sky130_fd_sc_hd__decap_12
XFILLER_3_202 VGND VPWR sky130_fd_sc_hd__fill_2
XANTENNA_mem_left_ipin_1.sc_dff_compact_3_.sky130_fd_sc_hd__dfrbp_1_CLK clkbuf_3_4_0_prog_clk/X
+ VGND VPWR sky130_fd_sc_hd__diode_2
XFILLER_34_139 VGND VPWR sky130_fd_sc_hd__fill_1
XFILLER_34_117 VGND VPWR sky130_fd_sc_hd__decap_6
XFILLER_32_3 VGND VPWR sky130_fd_sc_hd__fill_2
XFILLER_19_147 VGND VPWR sky130_fd_sc_hd__decap_12
XANTENNA_mem_left_ipin_3.sc_dff_compact_5_.sky130_fd_sc_hd__dfrbp_1_CLK clkbuf_3_4_0_prog_clk/X
+ VGND VPWR sky130_fd_sc_hd__diode_2
XANTENNA_mem_left_ipin_2.sc_dff_compact_4_.sky130_fd_sc_hd__dfrbp_1_CLK clkbuf_3_5_0_prog_clk/X
+ VGND VPWR sky130_fd_sc_hd__diode_2
XFILLER_25_106 VGND VPWR sky130_fd_sc_hd__fill_2
X_07_ _07_/HI right_grid_pin_12_ VGND VPWR sky130_fd_sc_hd__conb_1
XPHY_189 VGND VPWR sky130_fd_sc_hd__tapvpwrvgnd_1
XPHY_178 VGND VPWR sky130_fd_sc_hd__tapvpwrvgnd_1
XPHY_167 VGND VPWR sky130_fd_sc_hd__tapvpwrvgnd_1
XFILLER_24_150 VGND VPWR sky130_fd_sc_hd__decap_3
XPHY_156 VGND VPWR sky130_fd_sc_hd__tapvpwrvgnd_1
XPHY_145 VGND VPWR sky130_fd_sc_hd__tapvpwrvgnd_1
XPHY_134 VGND VPWR sky130_fd_sc_hd__tapvpwrvgnd_1
XANTENNA_mem_left_ipin_3.sc_dff_compact_0_.sky130_fd_sc_hd__dfrbp_1_RESET_B pReset
+ VGND VPWR sky130_fd_sc_hd__diode_2
XPHY_123 VGND VPWR sky130_fd_sc_hd__tapvpwrvgnd_1
XPHY_101 VGND VPWR sky130_fd_sc_hd__tapvpwrvgnd_1
XPHY_112 VGND VPWR sky130_fd_sc_hd__tapvpwrvgnd_1
XFILLER_30_142 VGND VPWR sky130_fd_sc_hd__decap_8
XANTENNA_mem_left_ipin_4.sc_dff_compact_2_.sky130_fd_sc_hd__dfrbp_1_D mem_left_ipin_4.sc_dff_compact_2_.sky130_fd_sc_hd__dfrbp_1/D
+ VGND VPWR sky130_fd_sc_hd__diode_2
XPHY_3 VGND VPWR sky130_fd_sc_hd__decap_3
XANTENNA_mem_left_ipin_5.sc_dff_compact_1_.sky130_fd_sc_hd__dfrbp_1_RESET_B pReset
+ VGND VPWR sky130_fd_sc_hd__diode_2
XFILLER_35_201 VGND VPWR sky130_fd_sc_hd__decap_12
XFILLER_32_93 VGND VPWR sky130_fd_sc_hd__decap_12
XFILLER_8_146 VGND VPWR sky130_fd_sc_hd__decap_6
XFILLER_37_27 VGND VPWR sky130_fd_sc_hd__decap_4
XANTENNA_mem_left_ipin_7.sc_dff_compact_2_.sky130_fd_sc_hd__dfrbp_1_RESET_B pReset
+ VGND VPWR sky130_fd_sc_hd__diode_2
XFILLER_5_105 VGND VPWR sky130_fd_sc_hd__fill_1
XFILLER_5_116 VGND VPWR sky130_fd_sc_hd__fill_2
XFILLER_32_215 VGND VPWR sky130_fd_sc_hd__decap_6
XFILLER_27_82 VGND VPWR sky130_fd_sc_hd__decap_12
XFILLER_4_64 VGND VPWR sky130_fd_sc_hd__decap_12