* NGSPICE file created from cbx_1__0_.ext - technology: sky130A

* Black-box entry subcircuit for sky130_fd_sc_hd__fill_1 abstract view
.subckt sky130_fd_sc_hd__fill_1 VGND VPWR
.ends

* Black-box entry subcircuit for sky130_fd_sc_hd__dfrbp_1 abstract view
.subckt sky130_fd_sc_hd__dfrbp_1 D Q Q_N RESET_B CLK VGND VPWR
.ends

* Black-box entry subcircuit for sky130_fd_sc_hd__fill_2 abstract view
.subckt sky130_fd_sc_hd__fill_2 VGND VPWR
.ends

* Black-box entry subcircuit for sky130_fd_sc_hd__decap_12 abstract view
.subckt sky130_fd_sc_hd__decap_12 VGND VPWR
.ends

* Black-box entry subcircuit for sky130_fd_sc_hd__decap_4 abstract view
.subckt sky130_fd_sc_hd__decap_4 VGND VPWR
.ends

* Black-box entry subcircuit for sky130_fd_sc_hd__diode_2 abstract view
.subckt sky130_fd_sc_hd__diode_2 DIODE VGND VPWR
.ends

* Black-box entry subcircuit for sky130_fd_sc_hd__clkbuf_1 abstract view
.subckt sky130_fd_sc_hd__clkbuf_1 A X VGND VPWR
.ends

* Black-box entry subcircuit for sky130_fd_sc_hd__decap_3 abstract view
.subckt sky130_fd_sc_hd__decap_3 VGND VPWR
.ends

* Black-box entry subcircuit for sky130_fd_sc_hd__decap_8 abstract view
.subckt sky130_fd_sc_hd__decap_8 VGND VPWR
.ends

* Black-box entry subcircuit for sky130_fd_sc_hd__decap_6 abstract view
.subckt sky130_fd_sc_hd__decap_6 VGND VPWR
.ends

* Black-box entry subcircuit for sky130_fd_sc_hd__tapvpwrvgnd_1 abstract view
.subckt sky130_fd_sc_hd__tapvpwrvgnd_1 VGND VPWR
.ends

* Black-box entry subcircuit for sky130_fd_sc_hd__buf_2 abstract view
.subckt sky130_fd_sc_hd__buf_2 A X VGND VPWR
.ends

* Black-box entry subcircuit for sky130_fd_sc_hd__conb_1 abstract view
.subckt sky130_fd_sc_hd__conb_1 HI LO VGND VPWR
.ends

* Black-box entry subcircuit for sky130_fd_sc_hd__clkbuf_16 abstract view
.subckt sky130_fd_sc_hd__clkbuf_16 A X VGND VPWR
.ends

.subckt cbx_1__0_ bottom_grid_pin_0_ bottom_grid_pin_10_ bottom_grid_pin_12_ bottom_grid_pin_14_
+ bottom_grid_pin_2_ bottom_grid_pin_4_ bottom_grid_pin_6_ bottom_grid_pin_8_ ccff_head
+ ccff_tail chanx_left_in[0] chanx_left_in[1] chanx_left_in[2] chanx_left_in[3] chanx_left_in[4]
+ chanx_left_in[5] chanx_left_in[6] chanx_left_in[7] chanx_left_in[8] chanx_left_out[0]
+ chanx_left_out[1] chanx_left_out[2] chanx_left_out[3] chanx_left_out[4] chanx_left_out[5]
+ chanx_left_out[6] chanx_left_out[7] chanx_left_out[8] chanx_right_in[0] chanx_right_in[1]
+ chanx_right_in[2] chanx_right_in[3] chanx_right_in[4] chanx_right_in[5] chanx_right_in[6]
+ chanx_right_in[7] chanx_right_in[8] chanx_right_out[0] chanx_right_out[1] chanx_right_out[2]
+ chanx_right_out[3] chanx_right_out[4] chanx_right_out[5] chanx_right_out[6] chanx_right_out[7]
+ chanx_right_out[8] pReset prog_clk top_grid_pin_14_ top_grid_pin_2_ top_grid_pin_6_
+ VPWR VGND
XFILLER_22_122 VGND VPWR sky130_fd_sc_hd__fill_1
Xmem_top_ipin_0.sc_dff_compact_4_.sky130_fd_sc_hd__dfrbp_1 mem_top_ipin_0.sc_dff_compact_3_.sky130_fd_sc_hd__dfrbp_1/Q
+ mem_top_ipin_0.sc_dff_compact_5_.sky130_fd_sc_hd__dfrbp_1/D mem_top_ipin_0.sc_dff_compact_4_.sky130_fd_sc_hd__dfrbp_1/Q_N
+ pReset clkbuf_3_5_0_prog_clk/X VGND VPWR sky130_fd_sc_hd__dfrbp_1
Xmem_bottom_ipin_2.sc_dff_compact_5_.sky130_fd_sc_hd__dfrbp_1 mem_bottom_ipin_2.sc_dff_compact_4_.sky130_fd_sc_hd__dfrbp_1/Q
+ mem_top_ipin_0.sc_dff_compact_0_.sky130_fd_sc_hd__dfrbp_1/D mem_bottom_ipin_2.sc_dff_compact_5_.sky130_fd_sc_hd__dfrbp_1/Q_N
+ pReset clkbuf_3_4_0_prog_clk/X VGND VPWR sky130_fd_sc_hd__dfrbp_1
XFILLER_33_206 VGND VPWR sky130_fd_sc_hd__fill_2
XFILLER_12_76 VGND VPWR sky130_fd_sc_hd__decap_12
XFILLER_12_32 VGND VPWR sky130_fd_sc_hd__fill_2
XFILLER_6_129 VGND VPWR sky130_fd_sc_hd__decap_12
XFILLER_10_158 VGND VPWR sky130_fd_sc_hd__decap_4
XFILLER_5_184 VGND VPWR sky130_fd_sc_hd__decap_12
Xmem_bottom_ipin_0.sc_dff_compact_0_.sky130_fd_sc_hd__dfrbp_1 ccff_head mem_bottom_ipin_0.sc_dff_compact_0_.sky130_fd_sc_hd__dfrbp_1/Q
+ mem_bottom_ipin_0.sc_dff_compact_0_.sky130_fd_sc_hd__dfrbp_1/Q_N pReset clkbuf_3_0_0_prog_clk/X
+ VGND VPWR sky130_fd_sc_hd__dfrbp_1
XFILLER_2_154 VGND VPWR sky130_fd_sc_hd__fill_2
XANTENNA_clkbuf_2_1_0_prog_clk_A clkbuf_2_1_0_prog_clk/A VGND VPWR sky130_fd_sc_hd__diode_2
Xclkbuf_3_4_0_prog_clk clkbuf_2_2_0_prog_clk/X clkbuf_3_4_0_prog_clk/X VGND VPWR sky130_fd_sc_hd__clkbuf_1
XFILLER_34_63 VGND VPWR sky130_fd_sc_hd__decap_12
XANTENNA_mem_top_ipin_0.sc_dff_compact_2_.sky130_fd_sc_hd__dfrbp_1_D mem_top_ipin_0.sc_dff_compact_2_.sky130_fd_sc_hd__dfrbp_1/D
+ VGND VPWR sky130_fd_sc_hd__diode_2
XFILLER_20_87 VGND VPWR sky130_fd_sc_hd__fill_1
XFILLER_20_76 VGND VPWR sky130_fd_sc_hd__decap_3
XFILLER_20_43 VGND VPWR sky130_fd_sc_hd__fill_2
XFILLER_20_32 VGND VPWR sky130_fd_sc_hd__fill_2
XFILLER_20_21 VGND VPWR sky130_fd_sc_hd__fill_1
XFILLER_26_109 VGND VPWR sky130_fd_sc_hd__decap_8
XFILLER_13_3 VGND VPWR sky130_fd_sc_hd__decap_6
XANTENNA_mem_top_ipin_0.sc_dff_compact_5_.sky130_fd_sc_hd__dfrbp_1_CLK clkbuf_3_5_0_prog_clk/X
+ VGND VPWR sky130_fd_sc_hd__diode_2
XFILLER_6_56 VGND VPWR sky130_fd_sc_hd__decap_12
XFILLER_31_53 VGND VPWR sky130_fd_sc_hd__fill_2
XPHY_170 VGND VPWR sky130_fd_sc_hd__tapvpwrvgnd_1
XFILLER_31_123 VGND VPWR sky130_fd_sc_hd__fill_2
XFILLER_31_75 VGND VPWR sky130_fd_sc_hd__decap_4
XFILLER_22_134 VGND VPWR sky130_fd_sc_hd__decap_12
XFILLER_26_97 VGND VPWR sky130_fd_sc_hd__decap_12
XFILLER_26_64 VGND VPWR sky130_fd_sc_hd__fill_2
XFILLER_13_123 VGND VPWR sky130_fd_sc_hd__decap_12
XFILLER_3_57 VGND VPWR sky130_fd_sc_hd__decap_4
XFILLER_9_116 VGND VPWR sky130_fd_sc_hd__fill_2
XFILLER_9_127 VGND VPWR sky130_fd_sc_hd__fill_2
XANTENNA_mem_top_ipin_1.sc_dff_compact_0_.sky130_fd_sc_hd__dfrbp_1_D mem_top_ipin_0.sc_dff_compact_5_.sky130_fd_sc_hd__dfrbp_1/Q
+ VGND VPWR sky130_fd_sc_hd__diode_2
XFILLER_12_88 VGND VPWR sky130_fd_sc_hd__decap_4
XANTENNA_mem_top_ipin_0.sc_dff_compact_5_.sky130_fd_sc_hd__dfrbp_1_D mem_top_ipin_0.sc_dff_compact_5_.sky130_fd_sc_hd__dfrbp_1/D
+ VGND VPWR sky130_fd_sc_hd__diode_2
XFILLER_5_196 VGND VPWR sky130_fd_sc_hd__decap_12
XANTENNA_mem_bottom_ipin_1.sc_dff_compact_1_.sky130_fd_sc_hd__dfrbp_1_RESET_B pReset
+ VGND VPWR sky130_fd_sc_hd__diode_2
XFILLER_9_67 VGND VPWR sky130_fd_sc_hd__fill_2
XANTENNA_mem_bottom_ipin_1.sc_dff_compact_0_.sky130_fd_sc_hd__dfrbp_1_CLK clkbuf_3_1_0_prog_clk/X
+ VGND VPWR sky130_fd_sc_hd__diode_2
XFILLER_34_75 VGND VPWR sky130_fd_sc_hd__decap_12
XFILLER_18_32 VGND VPWR sky130_fd_sc_hd__fill_2
XANTENNA_mem_bottom_ipin_2.sc_dff_compact_1_.sky130_fd_sc_hd__dfrbp_1_CLK clkbuf_3_1_0_prog_clk/X
+ VGND VPWR sky130_fd_sc_hd__diode_2
XFILLER_29_53 VGND VPWR sky130_fd_sc_hd__decap_4
XFILLER_19_184 VGND VPWR sky130_fd_sc_hd__decap_12
XFILLER_6_68 VGND VPWR sky130_fd_sc_hd__decap_12
XFILLER_34_187 VGND VPWR sky130_fd_sc_hd__decap_12
XFILLER_25_110 VGND VPWR sky130_fd_sc_hd__decap_12
XANTENNA_mem_top_ipin_1.sc_dff_compact_3_.sky130_fd_sc_hd__dfrbp_1_D mem_top_ipin_1.sc_dff_compact_2_.sky130_fd_sc_hd__dfrbp_1/Q
+ VGND VPWR sky130_fd_sc_hd__diode_2
XFILLER_15_33 VGND VPWR sky130_fd_sc_hd__fill_1
XPHY_171 VGND VPWR sky130_fd_sc_hd__tapvpwrvgnd_1
XFILLER_31_179 VGND VPWR sky130_fd_sc_hd__decap_4
XPHY_160 VGND VPWR sky130_fd_sc_hd__tapvpwrvgnd_1
XFILLER_16_187 VGND VPWR sky130_fd_sc_hd__decap_12
XFILLER_16_154 VGND VPWR sky130_fd_sc_hd__fill_2
XFILLER_16_143 VGND VPWR sky130_fd_sc_hd__fill_1
Xmem_top_ipin_5.sc_dff_compact_1_.sky130_fd_sc_hd__dfrbp_1 mem_top_ipin_5.sc_dff_compact_1_.sky130_fd_sc_hd__dfrbp_1/D
+ mem_top_ipin_5.sc_dff_compact_1_.sky130_fd_sc_hd__dfrbp_1/Q mem_top_ipin_5.sc_dff_compact_1_.sky130_fd_sc_hd__dfrbp_1/Q_N
+ pReset clkbuf_3_2_0_prog_clk/X VGND VPWR sky130_fd_sc_hd__dfrbp_1
XFILLER_22_179 VGND VPWR sky130_fd_sc_hd__decap_12
XFILLER_22_146 VGND VPWR sky130_fd_sc_hd__decap_6
XFILLER_26_32 VGND VPWR sky130_fd_sc_hd__fill_2
XFILLER_26_21 VGND VPWR sky130_fd_sc_hd__decap_6
XFILLER_13_179 VGND VPWR sky130_fd_sc_hd__decap_4
XFILLER_13_146 VGND VPWR sky130_fd_sc_hd__fill_2
XFILLER_13_135 VGND VPWR sky130_fd_sc_hd__decap_8
XFILLER_13_113 VGND VPWR sky130_fd_sc_hd__decap_8
Xmem_top_ipin_2.sc_dff_compact_2_.sky130_fd_sc_hd__dfrbp_1 mem_top_ipin_2.sc_dff_compact_1_.sky130_fd_sc_hd__dfrbp_1/Q
+ mem_top_ipin_2.sc_dff_compact_3_.sky130_fd_sc_hd__dfrbp_1/D mem_top_ipin_2.sc_dff_compact_2_.sky130_fd_sc_hd__dfrbp_1/Q_N
+ pReset clkbuf_3_4_0_prog_clk/X VGND VPWR sky130_fd_sc_hd__dfrbp_1
XFILLER_3_36 VGND VPWR sky130_fd_sc_hd__fill_2
XFILLER_10_105 VGND VPWR sky130_fd_sc_hd__decap_12
XANTENNA_mem_top_ipin_3.sc_dff_compact_0_.sky130_fd_sc_hd__dfrbp_1_CLK clkbuf_3_6_0_prog_clk/X
+ VGND VPWR sky130_fd_sc_hd__diode_2
XANTENNA_mem_top_ipin_4.sc_dff_compact_1_.sky130_fd_sc_hd__dfrbp_1_CLK clkbuf_3_2_0_prog_clk/X
+ VGND VPWR sky130_fd_sc_hd__diode_2
XANTENNA_mem_top_ipin_5.sc_dff_compact_2_.sky130_fd_sc_hd__dfrbp_1_CLK clkbuf_3_2_0_prog_clk/X
+ VGND VPWR sky130_fd_sc_hd__diode_2
XANTENNA_mem_top_ipin_2.sc_dff_compact_1_.sky130_fd_sc_hd__dfrbp_1_D mem_top_ipin_2.sc_dff_compact_0_.sky130_fd_sc_hd__dfrbp_1/Q
+ VGND VPWR sky130_fd_sc_hd__diode_2
XFILLER_4_90 VGND VPWR sky130_fd_sc_hd__fill_2
XANTENNA_mem_top_ipin_6.sc_dff_compact_3_.sky130_fd_sc_hd__dfrbp_1_CLK clkbuf_3_6_0_prog_clk/X
+ VGND VPWR sky130_fd_sc_hd__diode_2
XANTENNA_mem_top_ipin_7.sc_dff_compact_4_.sky130_fd_sc_hd__dfrbp_1_CLK clkbuf_3_7_0_prog_clk/X
+ VGND VPWR sky130_fd_sc_hd__diode_2
XFILLER_3_3 VGND VPWR sky130_fd_sc_hd__decap_8
XFILLER_0_15 VGND VPWR sky130_fd_sc_hd__decap_12
XFILLER_34_87 VGND VPWR sky130_fd_sc_hd__decap_6
XFILLER_34_32 VGND VPWR sky130_fd_sc_hd__decap_12
XFILLER_18_77 VGND VPWR sky130_fd_sc_hd__fill_2
XANTENNA_clkbuf_1_0_0_prog_clk_A clkbuf_0_prog_clk/X VGND VPWR sky130_fd_sc_hd__diode_2
XANTENNA_mem_top_ipin_7.sc_dff_compact_0_.sky130_fd_sc_hd__dfrbp_1_RESET_B pReset
+ VGND VPWR sky130_fd_sc_hd__diode_2
XFILLER_29_21 VGND VPWR sky130_fd_sc_hd__fill_1
XFILLER_28_141 VGND VPWR sky130_fd_sc_hd__decap_12
XFILLER_34_199 VGND VPWR sky130_fd_sc_hd__decap_8
XFILLER_19_196 VGND VPWR sky130_fd_sc_hd__decap_12
XFILLER_31_11 VGND VPWR sky130_fd_sc_hd__fill_2
XPHY_172 VGND VPWR sky130_fd_sc_hd__tapvpwrvgnd_1
XFILLER_31_114 VGND VPWR sky130_fd_sc_hd__fill_2
XPHY_161 VGND VPWR sky130_fd_sc_hd__tapvpwrvgnd_1
XPHY_150 VGND VPWR sky130_fd_sc_hd__tapvpwrvgnd_1
Xclkbuf_2_1_0_prog_clk clkbuf_2_1_0_prog_clk/A clkbuf_3_3_0_prog_clk/A VGND VPWR sky130_fd_sc_hd__clkbuf_1
XFILLER_22_125 VGND VPWR sky130_fd_sc_hd__decap_6
XFILLER_16_199 VGND VPWR sky130_fd_sc_hd__decap_8
XANTENNA_mem_top_ipin_2.sc_dff_compact_4_.sky130_fd_sc_hd__dfrbp_1_D mem_top_ipin_2.sc_dff_compact_3_.sky130_fd_sc_hd__dfrbp_1/Q
+ VGND VPWR sky130_fd_sc_hd__diode_2
XFILLER_13_103 VGND VPWR sky130_fd_sc_hd__decap_8
XFILLER_3_48 VGND VPWR sky130_fd_sc_hd__fill_1
XFILLER_12_57 VGND VPWR sky130_fd_sc_hd__decap_4
XFILLER_12_13 VGND VPWR sky130_fd_sc_hd__fill_1
XANTENNA_mem_bottom_ipin_0.sc_dff_compact_1_.sky130_fd_sc_hd__dfrbp_1_RESET_B pReset
+ VGND VPWR sky130_fd_sc_hd__diode_2
XFILLER_10_117 VGND VPWR sky130_fd_sc_hd__decap_4
XFILLER_5_110 VGND VPWR sky130_fd_sc_hd__decap_12
XANTENNA_mem_bottom_ipin_2.sc_dff_compact_2_.sky130_fd_sc_hd__dfrbp_1_RESET_B pReset
+ VGND VPWR sky130_fd_sc_hd__diode_2
XFILLER_23_45 VGND VPWR sky130_fd_sc_hd__decap_4
XFILLER_23_12 VGND VPWR sky130_fd_sc_hd__fill_2
XFILLER_0_27 VGND VPWR sky130_fd_sc_hd__decap_4
XANTENNA__12__A chanx_right_in[7] VGND VPWR sky130_fd_sc_hd__diode_2
XFILLER_29_3 VGND VPWR sky130_fd_sc_hd__decap_12
XFILLER_9_36 VGND VPWR sky130_fd_sc_hd__fill_1
XFILLER_9_47 VGND VPWR sky130_fd_sc_hd__decap_12
XFILLER_34_44 VGND VPWR sky130_fd_sc_hd__decap_12
XANTENNA_mem_top_ipin_3.sc_dff_compact_2_.sky130_fd_sc_hd__dfrbp_1_D mem_top_ipin_3.sc_dff_compact_1_.sky130_fd_sc_hd__dfrbp_1/Q
+ VGND VPWR sky130_fd_sc_hd__diode_2
XFILLER_18_89 VGND VPWR sky130_fd_sc_hd__decap_3
XFILLER_20_24 VGND VPWR sky130_fd_sc_hd__decap_6
XFILLER_29_66 VGND VPWR sky130_fd_sc_hd__decap_3
Xclkbuf_3_3_0_prog_clk clkbuf_3_3_0_prog_clk/A clkbuf_3_3_0_prog_clk/X VGND VPWR sky130_fd_sc_hd__clkbuf_1
XFILLER_6_15 VGND VPWR sky130_fd_sc_hd__decap_12
XFILLER_34_156 VGND VPWR sky130_fd_sc_hd__decap_12
XFILLER_19_164 VGND VPWR sky130_fd_sc_hd__decap_12
XFILLER_19_120 VGND VPWR sky130_fd_sc_hd__fill_2
XFILLER_31_89 VGND VPWR sky130_fd_sc_hd__fill_2
XFILLER_31_45 VGND VPWR sky130_fd_sc_hd__decap_4
Xmem_top_ipin_6.sc_dff_compact_5_.sky130_fd_sc_hd__dfrbp_1 mem_top_ipin_6.sc_dff_compact_4_.sky130_fd_sc_hd__dfrbp_1/Q
+ mem_top_ipin_7.sc_dff_compact_0_.sky130_fd_sc_hd__dfrbp_1/D mem_top_ipin_6.sc_dff_compact_5_.sky130_fd_sc_hd__dfrbp_1/Q_N
+ pReset clkbuf_3_6_0_prog_clk/X VGND VPWR sky130_fd_sc_hd__dfrbp_1
XFILLER_25_123 VGND VPWR sky130_fd_sc_hd__decap_12
XANTENNA__20__A chanx_left_in[8] VGND VPWR sky130_fd_sc_hd__diode_2
XPHY_173 VGND VPWR sky130_fd_sc_hd__tapvpwrvgnd_1
XPHY_162 VGND VPWR sky130_fd_sc_hd__tapvpwrvgnd_1
XPHY_151 VGND VPWR sky130_fd_sc_hd__tapvpwrvgnd_1
XPHY_140 VGND VPWR sky130_fd_sc_hd__tapvpwrvgnd_1
XFILLER_16_123 VGND VPWR sky130_fd_sc_hd__fill_2
XFILLER_11_3 VGND VPWR sky130_fd_sc_hd__decap_4
XANTENNA__15__A chanx_right_in[4] VGND VPWR sky130_fd_sc_hd__diode_2
XANTENNA_mem_top_ipin_4.sc_dff_compact_0_.sky130_fd_sc_hd__dfrbp_1_D mem_top_ipin_3.sc_dff_compact_5_.sky130_fd_sc_hd__dfrbp_1/Q
+ VGND VPWR sky130_fd_sc_hd__diode_2
XFILLER_3_16 VGND VPWR sky130_fd_sc_hd__fill_2
XFILLER_9_108 VGND VPWR sky130_fd_sc_hd__decap_8
XFILLER_8_130 VGND VPWR sky130_fd_sc_hd__decap_12
XFILLER_8_152 VGND VPWR sky130_fd_sc_hd__fill_1
Xmem_top_ipin_4.sc_dff_compact_0_.sky130_fd_sc_hd__dfrbp_1 mem_top_ipin_3.sc_dff_compact_5_.sky130_fd_sc_hd__dfrbp_1/Q
+ mem_top_ipin_4.sc_dff_compact_1_.sky130_fd_sc_hd__dfrbp_1/D mem_top_ipin_4.sc_dff_compact_0_.sky130_fd_sc_hd__dfrbp_1/Q_N
+ pReset clkbuf_3_0_0_prog_clk/X VGND VPWR sky130_fd_sc_hd__dfrbp_1
XANTENNA_mem_top_ipin_3.sc_dff_compact_5_.sky130_fd_sc_hd__dfrbp_1_D mem_top_ipin_3.sc_dff_compact_4_.sky130_fd_sc_hd__dfrbp_1/Q
+ VGND VPWR sky130_fd_sc_hd__diode_2
XFILLER_18_207 VGND VPWR sky130_fd_sc_hd__fill_1
XFILLER_23_68 VGND VPWR sky130_fd_sc_hd__fill_2
XFILLER_23_57 VGND VPWR sky130_fd_sc_hd__decap_4
Xmem_top_ipin_1.sc_dff_compact_1_.sky130_fd_sc_hd__dfrbp_1 mem_top_ipin_1.sc_dff_compact_0_.sky130_fd_sc_hd__dfrbp_1/Q
+ mem_top_ipin_1.sc_dff_compact_1_.sky130_fd_sc_hd__dfrbp_1/Q mem_top_ipin_1.sc_dff_compact_1_.sky130_fd_sc_hd__dfrbp_1/Q_N
+ pReset clkbuf_3_5_0_prog_clk/X VGND VPWR sky130_fd_sc_hd__dfrbp_1
XFILLER_4_70 VGND VPWR sky130_fd_sc_hd__decap_12
XFILLER_1_180 VGND VPWR sky130_fd_sc_hd__decap_3
XFILLER_9_59 VGND VPWR sky130_fd_sc_hd__fill_2
XANTENNA_mem_top_ipin_6.sc_dff_compact_0_.sky130_fd_sc_hd__dfrbp_1_RESET_B pReset
+ VGND VPWR sky130_fd_sc_hd__diode_2
XFILLER_18_57 VGND VPWR sky130_fd_sc_hd__decap_12
Xmem_bottom_ipin_0.sc_dff_compact_3_.sky130_fd_sc_hd__dfrbp_1 mem_bottom_ipin_0.sc_dff_compact_2_.sky130_fd_sc_hd__dfrbp_1/Q
+ mem_bottom_ipin_0.sc_dff_compact_4_.sky130_fd_sc_hd__dfrbp_1/D mem_bottom_ipin_0.sc_dff_compact_3_.sky130_fd_sc_hd__dfrbp_1/Q_N
+ pReset clkbuf_3_0_0_prog_clk/X VGND VPWR sky130_fd_sc_hd__dfrbp_1
XFILLER_34_56 VGND VPWR sky130_fd_sc_hd__decap_6
XANTENNA__23__A chanx_left_in[5] VGND VPWR sky130_fd_sc_hd__diode_2
XFILLER_7_206 VGND VPWR sky130_fd_sc_hd__fill_2
X_28_ chanx_left_in[0] chanx_right_out[0] VGND VPWR sky130_fd_sc_hd__buf_2
XFILLER_1_60 VGND VPWR sky130_fd_sc_hd__fill_1
XFILLER_28_154 VGND VPWR sky130_fd_sc_hd__fill_2
XFILLER_20_47 VGND VPWR sky130_fd_sc_hd__fill_2
XFILLER_20_36 VGND VPWR sky130_fd_sc_hd__decap_4
XANTENNA_mem_top_ipin_4.sc_dff_compact_3_.sky130_fd_sc_hd__dfrbp_1_D mem_top_ipin_4.sc_dff_compact_2_.sky130_fd_sc_hd__dfrbp_1/Q
+ VGND VPWR sky130_fd_sc_hd__diode_2
XANTENNA__18__A chanx_right_in[1] VGND VPWR sky130_fd_sc_hd__diode_2
XFILLER_34_168 VGND VPWR sky130_fd_sc_hd__decap_12
XFILLER_19_176 VGND VPWR sky130_fd_sc_hd__decap_6
XFILLER_19_110 VGND VPWR sky130_fd_sc_hd__decap_4
XFILLER_6_27 VGND VPWR sky130_fd_sc_hd__decap_4
XFILLER_10_91 VGND VPWR sky130_fd_sc_hd__fill_1
XFILLER_33_190 VGND VPWR sky130_fd_sc_hd__fill_2
XFILLER_31_79 VGND VPWR sky130_fd_sc_hd__fill_1
XFILLER_31_68 VGND VPWR sky130_fd_sc_hd__fill_1
XFILLER_31_57 VGND VPWR sky130_fd_sc_hd__decap_4
XFILLER_25_135 VGND VPWR sky130_fd_sc_hd__decap_12
XPHY_174 VGND VPWR sky130_fd_sc_hd__tapvpwrvgnd_1
XPHY_163 VGND VPWR sky130_fd_sc_hd__tapvpwrvgnd_1
XPHY_152 VGND VPWR sky130_fd_sc_hd__tapvpwrvgnd_1
XFILLER_24_190 VGND VPWR sky130_fd_sc_hd__decap_12
XPHY_141 VGND VPWR sky130_fd_sc_hd__tapvpwrvgnd_1
XPHY_130 VGND VPWR sky130_fd_sc_hd__tapvpwrvgnd_1
XFILLER_16_146 VGND VPWR sky130_fd_sc_hd__decap_6
XFILLER_7_70 VGND VPWR sky130_fd_sc_hd__decap_12
XFILLER_26_68 VGND VPWR sky130_fd_sc_hd__decap_12
XFILLER_26_57 VGND VPWR sky130_fd_sc_hd__decap_4
XANTENNA__26__A chanx_left_in[2] VGND VPWR sky130_fd_sc_hd__diode_2
XANTENNA_mem_top_ipin_5.sc_dff_compact_1_.sky130_fd_sc_hd__dfrbp_1_D mem_top_ipin_5.sc_dff_compact_1_.sky130_fd_sc_hd__dfrbp_1/D
+ VGND VPWR sky130_fd_sc_hd__diode_2
XFILLER_5_123 VGND VPWR sky130_fd_sc_hd__decap_12
XFILLER_4_82 VGND VPWR sky130_fd_sc_hd__decap_8
XFILLER_4_93 VGND VPWR sky130_fd_sc_hd__decap_12
XFILLER_14_200 VGND VPWR sky130_fd_sc_hd__decap_8
XFILLER_20_203 VGND VPWR sky130_fd_sc_hd__decap_4
XANTENNA_mem_top_ipin_1.sc_dff_compact_5_.sky130_fd_sc_hd__dfrbp_1_CLK clkbuf_3_5_0_prog_clk/X
+ VGND VPWR sky130_fd_sc_hd__diode_2
XANTENNA_mem_top_ipin_0.sc_dff_compact_4_.sky130_fd_sc_hd__dfrbp_1_CLK clkbuf_3_5_0_prog_clk/X
+ VGND VPWR sky130_fd_sc_hd__diode_2
XANTENNA_clkbuf_3_3_0_prog_clk_A clkbuf_3_3_0_prog_clk/A VGND VPWR sky130_fd_sc_hd__diode_2
XFILLER_18_69 VGND VPWR sky130_fd_sc_hd__decap_8
XFILLER_1_3 VGND VPWR sky130_fd_sc_hd__decap_12
XFILLER_34_3 VGND VPWR sky130_fd_sc_hd__decap_12
X_27_ chanx_left_in[1] chanx_right_out[1] VGND VPWR sky130_fd_sc_hd__buf_2
XFILLER_29_24 VGND VPWR sky130_fd_sc_hd__fill_2
XFILLER_20_15 VGND VPWR sky130_fd_sc_hd__decap_6
XFILLER_34_125 VGND VPWR sky130_fd_sc_hd__decap_12
XANTENNA_mem_bottom_ipin_0.sc_dff_compact_0_.sky130_fd_sc_hd__dfrbp_1_D ccff_head
+ VGND VPWR sky130_fd_sc_hd__diode_2
XFILLER_31_36 VGND VPWR sky130_fd_sc_hd__fill_1
XFILLER_25_147 VGND VPWR sky130_fd_sc_hd__decap_12
XFILLER_15_37 VGND VPWR sky130_fd_sc_hd__fill_2
XPHY_175 VGND VPWR sky130_fd_sc_hd__tapvpwrvgnd_1
XPHY_164 VGND VPWR sky130_fd_sc_hd__tapvpwrvgnd_1
XPHY_153 VGND VPWR sky130_fd_sc_hd__tapvpwrvgnd_1
XPHY_142 VGND VPWR sky130_fd_sc_hd__tapvpwrvgnd_1
XPHY_131 VGND VPWR sky130_fd_sc_hd__tapvpwrvgnd_1
XFILLER_16_158 VGND VPWR sky130_fd_sc_hd__fill_2
XPHY_120 VGND VPWR sky130_fd_sc_hd__tapvpwrvgnd_1
XANTENNA_mem_top_ipin_5.sc_dff_compact_4_.sky130_fd_sc_hd__dfrbp_1_D mem_top_ipin_5.sc_dff_compact_4_.sky130_fd_sc_hd__dfrbp_1/D
+ VGND VPWR sky130_fd_sc_hd__diode_2
XPHY_0 VGND VPWR sky130_fd_sc_hd__decap_3
XFILLER_7_82 VGND VPWR sky130_fd_sc_hd__decap_12
Xmem_top_ipin_5.sc_dff_compact_4_.sky130_fd_sc_hd__dfrbp_1 mem_top_ipin_5.sc_dff_compact_4_.sky130_fd_sc_hd__dfrbp_1/D
+ mem_top_ipin_5.sc_dff_compact_4_.sky130_fd_sc_hd__dfrbp_1/Q mem_top_ipin_5.sc_dff_compact_4_.sky130_fd_sc_hd__dfrbp_1/Q_N
+ pReset clkbuf_3_3_0_prog_clk/X VGND VPWR sky130_fd_sc_hd__dfrbp_1
XFILLER_8_154 VGND VPWR sky130_fd_sc_hd__decap_12
XFILLER_12_16 VGND VPWR sky130_fd_sc_hd__decap_12
XANTENNA_mem_bottom_ipin_2.sc_dff_compact_0_.sky130_fd_sc_hd__dfrbp_1_CLK clkbuf_3_1_0_prog_clk/X
+ VGND VPWR sky130_fd_sc_hd__diode_2
XANTENNA_mem_top_ipin_5.sc_dff_compact_0_.sky130_fd_sc_hd__dfrbp_1_RESET_B pReset
+ VGND VPWR sky130_fd_sc_hd__diode_2
Xmem_top_ipin_2.sc_dff_compact_5_.sky130_fd_sc_hd__dfrbp_1 mem_top_ipin_2.sc_dff_compact_5_.sky130_fd_sc_hd__dfrbp_1/D
+ mem_top_ipin_2.sc_dff_compact_5_.sky130_fd_sc_hd__dfrbp_1/Q mem_top_ipin_2.sc_dff_compact_5_.sky130_fd_sc_hd__dfrbp_1/Q_N
+ pReset clkbuf_3_4_0_prog_clk/X VGND VPWR sky130_fd_sc_hd__dfrbp_1
Xclkbuf_2_0_0_prog_clk clkbuf_2_1_0_prog_clk/A clkbuf_2_0_0_prog_clk/X VGND VPWR sky130_fd_sc_hd__clkbuf_1
XFILLER_5_135 VGND VPWR sky130_fd_sc_hd__decap_12
XFILLER_4_190 VGND VPWR sky130_fd_sc_hd__decap_12
XANTENNA_mem_top_ipin_7.sc_dff_compact_1_.sky130_fd_sc_hd__dfrbp_1_RESET_B pReset
+ VGND VPWR sky130_fd_sc_hd__diode_2
XFILLER_2_105 VGND VPWR sky130_fd_sc_hd__decap_12
XFILLER_9_28 VGND VPWR sky130_fd_sc_hd__decap_8
XFILLER_9_39 VGND VPWR sky130_fd_sc_hd__fill_2
XANTENNA_mem_top_ipin_6.sc_dff_compact_2_.sky130_fd_sc_hd__dfrbp_1_D mem_top_ipin_6.sc_dff_compact_1_.sky130_fd_sc_hd__dfrbp_1/Q
+ VGND VPWR sky130_fd_sc_hd__diode_2
XANTENNA_mem_bottom_ipin_0.sc_dff_compact_3_.sky130_fd_sc_hd__dfrbp_1_D mem_bottom_ipin_0.sc_dff_compact_2_.sky130_fd_sc_hd__dfrbp_1/Q
+ VGND VPWR sky130_fd_sc_hd__diode_2
XFILLER_18_15 VGND VPWR sky130_fd_sc_hd__fill_1
Xmem_bottom_ipin_2.sc_dff_compact_1_.sky130_fd_sc_hd__dfrbp_1 mem_bottom_ipin_2.sc_dff_compact_0_.sky130_fd_sc_hd__dfrbp_1/Q
+ mem_bottom_ipin_2.sc_dff_compact_2_.sky130_fd_sc_hd__dfrbp_1/D mem_bottom_ipin_2.sc_dff_compact_1_.sky130_fd_sc_hd__dfrbp_1/Q_N
+ pReset clkbuf_3_1_0_prog_clk/X VGND VPWR sky130_fd_sc_hd__dfrbp_1
XFILLER_27_3 VGND VPWR sky130_fd_sc_hd__decap_12
Xmem_top_ipin_0.sc_dff_compact_0_.sky130_fd_sc_hd__dfrbp_1 mem_top_ipin_0.sc_dff_compact_0_.sky130_fd_sc_hd__dfrbp_1/D
+ mem_top_ipin_0.sc_dff_compact_0_.sky130_fd_sc_hd__dfrbp_1/Q mem_top_ipin_0.sc_dff_compact_0_.sky130_fd_sc_hd__dfrbp_1/Q_N
+ pReset clkbuf_3_5_0_prog_clk/X VGND VPWR sky130_fd_sc_hd__dfrbp_1
X_26_ chanx_left_in[2] chanx_right_out[2] VGND VPWR sky130_fd_sc_hd__buf_2
XFILLER_1_62 VGND VPWR sky130_fd_sc_hd__decap_12
XFILLER_34_137 VGND VPWR sky130_fd_sc_hd__decap_12
XFILLER_19_156 VGND VPWR sky130_fd_sc_hd__fill_2
XFILLER_19_123 VGND VPWR sky130_fd_sc_hd__fill_2
XFILLER_13_9 VGND VPWR sky130_fd_sc_hd__fill_1
XFILLER_10_60 VGND VPWR sky130_fd_sc_hd__fill_2
XFILLER_10_93 VGND VPWR sky130_fd_sc_hd__decap_12
XFILLER_25_159 VGND VPWR sky130_fd_sc_hd__decap_12
XANTENNA_mem_bottom_ipin_0.sc_dff_compact_2_.sky130_fd_sc_hd__dfrbp_1_RESET_B pReset
+ VGND VPWR sky130_fd_sc_hd__diode_2
X_09_ _09_/HI bottom_grid_pin_0_ VGND VPWR sky130_fd_sc_hd__conb_1
XPHY_176 VGND VPWR sky130_fd_sc_hd__tapvpwrvgnd_1
XFILLER_31_129 VGND VPWR sky130_fd_sc_hd__fill_2
XFILLER_31_118 VGND VPWR sky130_fd_sc_hd__decap_4
XPHY_165 VGND VPWR sky130_fd_sc_hd__tapvpwrvgnd_1
XPHY_154 VGND VPWR sky130_fd_sc_hd__tapvpwrvgnd_1
XPHY_143 VGND VPWR sky130_fd_sc_hd__tapvpwrvgnd_1
XPHY_132 VGND VPWR sky130_fd_sc_hd__tapvpwrvgnd_1
XPHY_121 VGND VPWR sky130_fd_sc_hd__tapvpwrvgnd_1
XPHY_110 VGND VPWR sky130_fd_sc_hd__tapvpwrvgnd_1
XANTENNA_mem_top_ipin_7.sc_dff_compact_0_.sky130_fd_sc_hd__dfrbp_1_D mem_top_ipin_7.sc_dff_compact_0_.sky130_fd_sc_hd__dfrbp_1/D
+ VGND VPWR sky130_fd_sc_hd__diode_2
XANTENNA_mem_top_ipin_5.sc_dff_compact_1_.sky130_fd_sc_hd__dfrbp_1_CLK clkbuf_3_2_0_prog_clk/X
+ VGND VPWR sky130_fd_sc_hd__diode_2
XFILLER_22_118 VGND VPWR sky130_fd_sc_hd__decap_4
XANTENNA_mem_top_ipin_4.sc_dff_compact_0_.sky130_fd_sc_hd__dfrbp_1_CLK clkbuf_3_0_0_prog_clk/X
+ VGND VPWR sky130_fd_sc_hd__diode_2
XFILLER_15_170 VGND VPWR sky130_fd_sc_hd__fill_2
XANTENNA_mem_bottom_ipin_2.sc_dff_compact_3_.sky130_fd_sc_hd__dfrbp_1_RESET_B pReset
+ VGND VPWR sky130_fd_sc_hd__diode_2
XANTENNA_mem_bottom_ipin_1.sc_dff_compact_1_.sky130_fd_sc_hd__dfrbp_1_D mem_bottom_ipin_1.sc_dff_compact_1_.sky130_fd_sc_hd__dfrbp_1/D
+ VGND VPWR sky130_fd_sc_hd__diode_2
XPHY_1 VGND VPWR sky130_fd_sc_hd__decap_3
XANTENNA_mem_top_ipin_6.sc_dff_compact_2_.sky130_fd_sc_hd__dfrbp_1_CLK clkbuf_3_6_0_prog_clk/X
+ VGND VPWR sky130_fd_sc_hd__diode_2
XFILLER_26_15 VGND VPWR sky130_fd_sc_hd__decap_4
Xclkbuf_3_2_0_prog_clk clkbuf_3_3_0_prog_clk/A clkbuf_3_2_0_prog_clk/X VGND VPWR sky130_fd_sc_hd__clkbuf_1
XFILLER_21_184 VGND VPWR sky130_fd_sc_hd__decap_12
XFILLER_7_94 VGND VPWR sky130_fd_sc_hd__decap_12
XANTENNA_mem_top_ipin_7.sc_dff_compact_3_.sky130_fd_sc_hd__dfrbp_1_CLK clkbuf_3_7_0_prog_clk/X
+ VGND VPWR sky130_fd_sc_hd__diode_2
XFILLER_8_144 VGND VPWR sky130_fd_sc_hd__decap_8
XFILLER_8_166 VGND VPWR sky130_fd_sc_hd__decap_12
XANTENNA_mem_top_ipin_6.sc_dff_compact_5_.sky130_fd_sc_hd__dfrbp_1_D mem_top_ipin_6.sc_dff_compact_4_.sky130_fd_sc_hd__dfrbp_1/Q
+ VGND VPWR sky130_fd_sc_hd__diode_2
XFILLER_12_28 VGND VPWR sky130_fd_sc_hd__decap_3
XFILLER_5_147 VGND VPWR sky130_fd_sc_hd__decap_12
XFILLER_4_40 VGND VPWR sky130_fd_sc_hd__fill_2
XFILLER_23_49 VGND VPWR sky130_fd_sc_hd__fill_1
XFILLER_23_16 VGND VPWR sky130_fd_sc_hd__fill_2
XFILLER_2_117 VGND VPWR sky130_fd_sc_hd__decap_12
XFILLER_34_15 VGND VPWR sky130_fd_sc_hd__decap_12
XANTENNA_mem_top_ipin_7.sc_dff_compact_3_.sky130_fd_sc_hd__dfrbp_1_D mem_top_ipin_7.sc_dff_compact_2_.sky130_fd_sc_hd__dfrbp_1/Q
+ VGND VPWR sky130_fd_sc_hd__diode_2
XFILLER_29_15 VGND VPWR sky130_fd_sc_hd__decap_6
X_25_ chanx_left_in[3] chanx_right_out[3] VGND VPWR sky130_fd_sc_hd__buf_2
XFILLER_1_74 VGND VPWR sky130_fd_sc_hd__decap_12
XFILLER_29_59 VGND VPWR sky130_fd_sc_hd__fill_2
XFILLER_28_179 VGND VPWR sky130_fd_sc_hd__decap_12
XFILLER_28_113 VGND VPWR sky130_fd_sc_hd__decap_4
XFILLER_19_102 VGND VPWR sky130_fd_sc_hd__fill_2
XFILLER_10_72 VGND VPWR sky130_fd_sc_hd__fill_1
XFILLER_34_149 VGND VPWR sky130_fd_sc_hd__decap_6
X_08_ _08_/HI bottom_grid_pin_10_ VGND VPWR sky130_fd_sc_hd__conb_1
XANTENNA_clkbuf_2_2_0_prog_clk_A clkbuf_2_3_0_prog_clk/A VGND VPWR sky130_fd_sc_hd__diode_2
XFILLER_33_171 VGND VPWR sky130_fd_sc_hd__decap_12
XFILLER_31_49 VGND VPWR sky130_fd_sc_hd__fill_1
XFILLER_31_16 VGND VPWR sky130_fd_sc_hd__decap_12
XFILLER_16_127 VGND VPWR sky130_fd_sc_hd__decap_12
XFILLER_15_17 VGND VPWR sky130_fd_sc_hd__decap_12
XPHY_100 VGND VPWR sky130_fd_sc_hd__tapvpwrvgnd_1
XPHY_177 VGND VPWR sky130_fd_sc_hd__tapvpwrvgnd_1
XPHY_166 VGND VPWR sky130_fd_sc_hd__tapvpwrvgnd_1
XPHY_155 VGND VPWR sky130_fd_sc_hd__tapvpwrvgnd_1
XPHY_144 VGND VPWR sky130_fd_sc_hd__tapvpwrvgnd_1
XPHY_133 VGND VPWR sky130_fd_sc_hd__tapvpwrvgnd_1
XPHY_122 VGND VPWR sky130_fd_sc_hd__tapvpwrvgnd_1
XFILLER_15_182 VGND VPWR sky130_fd_sc_hd__fill_1
XPHY_111 VGND VPWR sky130_fd_sc_hd__tapvpwrvgnd_1
XPHY_2 VGND VPWR sky130_fd_sc_hd__decap_3
XFILLER_30_163 VGND VPWR sky130_fd_sc_hd__fill_2
XFILLER_21_196 VGND VPWR sky130_fd_sc_hd__decap_12
XFILLER_21_163 VGND VPWR sky130_fd_sc_hd__fill_2
XFILLER_21_130 VGND VPWR sky130_fd_sc_hd__fill_2
XANTENNA_mem_top_ipin_4.sc_dff_compact_0_.sky130_fd_sc_hd__dfrbp_1_RESET_B pReset
+ VGND VPWR sky130_fd_sc_hd__diode_2
XFILLER_7_62 VGND VPWR sky130_fd_sc_hd__fill_2
XFILLER_16_93 VGND VPWR sky130_fd_sc_hd__decap_3
XFILLER_12_185 VGND VPWR sky130_fd_sc_hd__decap_12
XFILLER_8_178 VGND VPWR sky130_fd_sc_hd__decap_12
XANTENNA_mem_top_ipin_6.sc_dff_compact_1_.sky130_fd_sc_hd__dfrbp_1_RESET_B pReset
+ VGND VPWR sky130_fd_sc_hd__diode_2
Xmem_top_ipin_7.sc_dff_compact_2_.sky130_fd_sc_hd__dfrbp_1 mem_top_ipin_7.sc_dff_compact_1_.sky130_fd_sc_hd__dfrbp_1/Q
+ mem_top_ipin_7.sc_dff_compact_2_.sky130_fd_sc_hd__dfrbp_1/Q mem_top_ipin_7.sc_dff_compact_2_.sky130_fd_sc_hd__dfrbp_1/Q_N
+ pReset clkbuf_3_7_0_prog_clk/X VGND VPWR sky130_fd_sc_hd__dfrbp_1
XANTENNA_mem_bottom_ipin_2.sc_dff_compact_2_.sky130_fd_sc_hd__dfrbp_1_D mem_bottom_ipin_2.sc_dff_compact_2_.sky130_fd_sc_hd__dfrbp_1/D
+ VGND VPWR sky130_fd_sc_hd__diode_2
XFILLER_5_159 VGND VPWR sky130_fd_sc_hd__decap_12
Xmem_top_ipin_4.sc_dff_compact_3_.sky130_fd_sc_hd__dfrbp_1 mem_top_ipin_4.sc_dff_compact_2_.sky130_fd_sc_hd__dfrbp_1/Q
+ mem_top_ipin_4.sc_dff_compact_3_.sky130_fd_sc_hd__dfrbp_1/Q mem_top_ipin_4.sc_dff_compact_3_.sky130_fd_sc_hd__dfrbp_1/Q_N
+ pReset clkbuf_3_0_0_prog_clk/X VGND VPWR sky130_fd_sc_hd__dfrbp_1
XFILLER_2_129 VGND VPWR sky130_fd_sc_hd__decap_12
XFILLER_1_184 VGND VPWR sky130_fd_sc_hd__fill_2
XFILLER_34_27 VGND VPWR sky130_fd_sc_hd__decap_4
Xmem_top_ipin_1.sc_dff_compact_4_.sky130_fd_sc_hd__dfrbp_1 mem_top_ipin_1.sc_dff_compact_3_.sky130_fd_sc_hd__dfrbp_1/Q
+ mem_top_ipin_1.sc_dff_compact_5_.sky130_fd_sc_hd__dfrbp_1/D mem_top_ipin_1.sc_dff_compact_4_.sky130_fd_sc_hd__dfrbp_1/Q_N
+ pReset clkbuf_3_5_0_prog_clk/X VGND VPWR sky130_fd_sc_hd__dfrbp_1
XFILLER_24_93 VGND VPWR sky130_fd_sc_hd__decap_12
X_24_ chanx_left_in[4] chanx_right_out[4] VGND VPWR sky130_fd_sc_hd__buf_2
XFILLER_1_86 VGND VPWR sky130_fd_sc_hd__decap_12
XFILLER_1_42 VGND VPWR sky130_fd_sc_hd__decap_12
XFILLER_34_106 VGND VPWR sky130_fd_sc_hd__decap_12
XFILLER_32_3 VGND VPWR sky130_fd_sc_hd__decap_8
XFILLER_27_180 VGND VPWR sky130_fd_sc_hd__decap_3
XFILLER_19_71 VGND VPWR sky130_fd_sc_hd__decap_4
Xmem_bottom_ipin_1.sc_dff_compact_0_.sky130_fd_sc_hd__dfrbp_1 mem_bottom_ipin_1.sc_dff_compact_0_.sky130_fd_sc_hd__dfrbp_1/D
+ mem_bottom_ipin_1.sc_dff_compact_1_.sky130_fd_sc_hd__dfrbp_1/D mem_bottom_ipin_1.sc_dff_compact_0_.sky130_fd_sc_hd__dfrbp_1/Q_N
+ pReset clkbuf_3_1_0_prog_clk/X VGND VPWR sky130_fd_sc_hd__dfrbp_1
XFILLER_33_194 VGND VPWR sky130_fd_sc_hd__decap_12
XFILLER_31_28 VGND VPWR sky130_fd_sc_hd__decap_8
X_07_ _07_/HI bottom_grid_pin_12_ VGND VPWR sky130_fd_sc_hd__conb_1
XFILLER_15_29 VGND VPWR sky130_fd_sc_hd__decap_4
XANTENNA_mem_bottom_ipin_2.sc_dff_compact_5_.sky130_fd_sc_hd__dfrbp_1_D mem_bottom_ipin_2.sc_dff_compact_4_.sky130_fd_sc_hd__dfrbp_1/Q
+ VGND VPWR sky130_fd_sc_hd__diode_2
XPHY_178 VGND VPWR sky130_fd_sc_hd__tapvpwrvgnd_1
XPHY_167 VGND VPWR sky130_fd_sc_hd__tapvpwrvgnd_1
XPHY_156 VGND VPWR sky130_fd_sc_hd__tapvpwrvgnd_1
XFILLER_24_150 VGND VPWR sky130_fd_sc_hd__decap_3
XPHY_145 VGND VPWR sky130_fd_sc_hd__tapvpwrvgnd_1
XPHY_134 VGND VPWR sky130_fd_sc_hd__tapvpwrvgnd_1
XPHY_123 VGND VPWR sky130_fd_sc_hd__tapvpwrvgnd_1
XFILLER_16_139 VGND VPWR sky130_fd_sc_hd__decap_4
XPHY_112 VGND VPWR sky130_fd_sc_hd__tapvpwrvgnd_1
XPHY_101 VGND VPWR sky130_fd_sc_hd__tapvpwrvgnd_1
XFILLER_15_161 VGND VPWR sky130_fd_sc_hd__decap_3
XPHY_3 VGND VPWR sky130_fd_sc_hd__decap_3
XFILLER_32_93 VGND VPWR sky130_fd_sc_hd__fill_2
XFILLER_12_197 VGND VPWR sky130_fd_sc_hd__decap_8
XFILLER_7_190 VGND VPWR sky130_fd_sc_hd__fill_2
XFILLER_27_71 VGND VPWR sky130_fd_sc_hd__fill_2
XFILLER_17_201 VGND VPWR sky130_fd_sc_hd__decap_6
XFILLER_13_95 VGND VPWR sky130_fd_sc_hd__fill_2
XFILLER_13_62 VGND VPWR sky130_fd_sc_hd__fill_2
XFILLER_20_207 VGND VPWR sky130_fd_sc_hd__fill_1
XFILLER_18_18 VGND VPWR sky130_fd_sc_hd__decap_12