* NGSPICE file created from sb_0__3_.ext - technology: sky130A

* Black-box entry subcircuit for sky130_fd_sc_hd__decap_8 abstract view
.subckt sky130_fd_sc_hd__decap_8 VGND VPWR
.ends

* Black-box entry subcircuit for sky130_fd_sc_hd__decap_12 abstract view
.subckt sky130_fd_sc_hd__decap_12 VGND VPWR
.ends

* Black-box entry subcircuit for sky130_fd_sc_hd__diode_2 abstract view
.subckt sky130_fd_sc_hd__diode_2 DIODE VGND VPWR
.ends

* Black-box entry subcircuit for sky130_fd_sc_hd__ebufn_1 abstract view
.subckt sky130_fd_sc_hd__ebufn_1 A TE_B Z VGND VPWR
.ends

* Black-box entry subcircuit for sky130_fd_sc_hd__decap_3 abstract view
.subckt sky130_fd_sc_hd__decap_3 VGND VPWR
.ends

* Black-box entry subcircuit for sky130_fd_sc_hd__fill_1 abstract view
.subckt sky130_fd_sc_hd__fill_1 VGND VPWR
.ends

* Black-box entry subcircuit for sky130_fd_sc_hd__dfrbp_1 abstract view
.subckt sky130_fd_sc_hd__dfrbp_1 D Q Q_N RESET_B CLK VGND VPWR
.ends

* Black-box entry subcircuit for sky130_fd_sc_hd__fill_2 abstract view
.subckt sky130_fd_sc_hd__fill_2 VGND VPWR
.ends

* Black-box entry subcircuit for sky130_fd_sc_hd__decap_4 abstract view
.subckt sky130_fd_sc_hd__decap_4 VGND VPWR
.ends

* Black-box entry subcircuit for sky130_fd_sc_hd__inv_1 abstract view
.subckt sky130_fd_sc_hd__inv_1 A Y VGND VPWR
.ends

* Black-box entry subcircuit for sky130_fd_sc_hd__buf_2 abstract view
.subckt sky130_fd_sc_hd__buf_2 A X VGND VPWR
.ends

* Black-box entry subcircuit for sky130_fd_sc_hd__decap_6 abstract view
.subckt sky130_fd_sc_hd__decap_6 VGND VPWR
.ends

* Black-box entry subcircuit for sky130_fd_sc_hd__clkbuf_1 abstract view
.subckt sky130_fd_sc_hd__clkbuf_1 A X VGND VPWR
.ends

* Black-box entry subcircuit for sky130_fd_sc_hd__conb_1 abstract view
.subckt sky130_fd_sc_hd__conb_1 HI LO VGND VPWR
.ends

* Black-box entry subcircuit for sky130_fd_sc_hd__tapvpwrvgnd_1 abstract view
.subckt sky130_fd_sc_hd__tapvpwrvgnd_1 VGND VPWR
.ends

* Black-box entry subcircuit for sky130_fd_sc_hd__clkbuf_16 abstract view
.subckt sky130_fd_sc_hd__clkbuf_16 A X VGND VPWR
.ends

* Black-box entry subcircuit for sky130_fd_sc_hd__inv_8 abstract view
.subckt sky130_fd_sc_hd__inv_8 A Y VGND VPWR
.ends

.subckt sb_0__3_ bottom_left_grid_pin_11_ bottom_left_grid_pin_13_ bottom_left_grid_pin_15_
+ bottom_left_grid_pin_1_ bottom_left_grid_pin_3_ bottom_left_grid_pin_5_ bottom_left_grid_pin_7_
+ bottom_left_grid_pin_9_ bottom_right_grid_pin_11_ ccff_head ccff_tail chanx_right_in[0]
+ chanx_right_in[1] chanx_right_in[2] chanx_right_in[3] chanx_right_in[4] chanx_right_in[5]
+ chanx_right_in[6] chanx_right_in[7] chanx_right_in[8] chanx_right_out[0] chanx_right_out[1]
+ chanx_right_out[2] chanx_right_out[3] chanx_right_out[4] chanx_right_out[5] chanx_right_out[6]
+ chanx_right_out[7] chanx_right_out[8] chany_bottom_in[0] chany_bottom_in[1] chany_bottom_in[2]
+ chany_bottom_in[3] chany_bottom_in[4] chany_bottom_in[5] chany_bottom_in[6] chany_bottom_in[7]
+ chany_bottom_in[8] chany_bottom_out[0] chany_bottom_out[1] chany_bottom_out[2] chany_bottom_out[3]
+ chany_bottom_out[4] chany_bottom_out[5] chany_bottom_out[6] chany_bottom_out[7]
+ chany_bottom_out[8] pReset prog_clk right_bottom_grid_pin_12_ right_top_grid_pin_11_
+ right_top_grid_pin_13_ right_top_grid_pin_15_ right_top_grid_pin_1_ right_top_grid_pin_3_
+ right_top_grid_pin_5_ right_top_grid_pin_7_ right_top_grid_pin_9_ VPWR VGND
XFILLER_22_111 VGND VPWR sky130_fd_sc_hd__decap_8
XFILLER_26_63 VGND VPWR sky130_fd_sc_hd__decap_12
XANTENNA_mux_right_track_8.mux_l2_in_0_.TGATE_1_.sky130_fd_sc_hd__ebufn_1_A _27_/HI
+ VGND VPWR sky130_fd_sc_hd__diode_2
Xmux_bottom_track_15.mux_l1_in_0_.TGATE_1_.sky130_fd_sc_hd__ebufn_1 mux_bottom_track_15.INVTX1_1_.sky130_fd_sc_hd__inv_1/Y
+ mux_bottom_track_15.mux_l1_in_0_.TGATE_1_.sky130_fd_sc_hd__ebufn_1/TE_B mux_bottom_track_15.mux_l2_in_0_.TGATE_0_.sky130_fd_sc_hd__ebufn_1/A
+ VGND VPWR sky130_fd_sc_hd__ebufn_1
Xmux_bottom_track_5.mux_l1_in_0_.TGATE_1_.sky130_fd_sc_hd__ebufn_1 mux_bottom_track_5.INVTX1_1_.sky130_fd_sc_hd__inv_1/Y
+ mux_bottom_track_5.mux_l1_in_0_.TGATE_1_.sky130_fd_sc_hd__ebufn_1/TE_B mux_bottom_track_5.mux_l1_in_0_.TGATE_0_.sky130_fd_sc_hd__ebufn_1/Z
+ VGND VPWR sky130_fd_sc_hd__ebufn_1
XFILLER_12_87 VGND VPWR sky130_fd_sc_hd__decap_3
XFILLER_12_32 VGND VPWR sky130_fd_sc_hd__fill_1
Xmem_bottom_track_1.sc_dff_compact_1_.sky130_fd_sc_hd__dfrbp_1 mem_bottom_track_1.sc_dff_compact_0_.sky130_fd_sc_hd__dfrbp_1/Q
+ mem_bottom_track_3.sc_dff_compact_0_.sky130_fd_sc_hd__dfrbp_1/D mem_bottom_track_1.sc_dff_compact_1_.sky130_fd_sc_hd__dfrbp_1/Q_N
+ _19_/Y clkbuf_2_1_0_prog_clk/X VGND VPWR sky130_fd_sc_hd__dfrbp_1
XFILLER_6_107 VGND VPWR sky130_fd_sc_hd__fill_1
XFILLER_6_129 VGND VPWR sky130_fd_sc_hd__fill_2
XANTENNA_mem_bottom_track_5.sc_dff_compact_0_.sky130_fd_sc_hd__dfrbp_1_CLK clkbuf_2_2_0_prog_clk/X
+ VGND VPWR sky130_fd_sc_hd__diode_2
XANTENNA_mem_bottom_track_17.sc_dff_compact_0_.sky130_fd_sc_hd__dfrbp_1_CLK clkbuf_2_1_0_prog_clk/X
+ VGND VPWR sky130_fd_sc_hd__diode_2
Xmux_right_track_8.mux_l2_in_0_.TGATE_1_.sky130_fd_sc_hd__ebufn_1 _27_/HI mux_right_track_8.mux_l2_in_0_.TGATE_1_.sky130_fd_sc_hd__ebufn_1/TE_B
+ mux_right_track_8.tap_buf4_0_.sky130_fd_sc_hd__inv_1/A VGND VPWR sky130_fd_sc_hd__ebufn_1
XFILLER_9_66 VGND VPWR sky130_fd_sc_hd__fill_1
XFILLER_2_132 VGND VPWR sky130_fd_sc_hd__decap_4
XFILLER_2_154 VGND VPWR sky130_fd_sc_hd__decap_4
XANTENNA_mux_bottom_track_3.mux_l1_in_0_.TGATE_0_.sky130_fd_sc_hd__ebufn_1_A mux_bottom_track_3.INVTX1_0_.sky130_fd_sc_hd__inv_1/Y
+ VGND VPWR sky130_fd_sc_hd__diode_2
Xmux_bottom_track_3.tap_buf4_0_.sky130_fd_sc_hd__inv_1 mux_bottom_track_3.tap_buf4_0_.sky130_fd_sc_hd__inv_1/A
+ _54_/A VGND VPWR sky130_fd_sc_hd__inv_1
X_49_ _49_/A chany_bottom_out[6] VGND VPWR sky130_fd_sc_hd__buf_2
XANTENNA_clkbuf_2_1_0_prog_clk_A clkbuf_2_0_0_prog_clk/A VGND VPWR sky130_fd_sc_hd__diode_2
XANTENNA_mux_right_track_12.mux_l2_in_0_.TGATE_1_.sky130_fd_sc_hd__ebufn_1_A _21_/HI
+ VGND VPWR sky130_fd_sc_hd__diode_2
XFILLER_20_98 VGND VPWR sky130_fd_sc_hd__fill_2
XFILLER_20_32 VGND VPWR sky130_fd_sc_hd__decap_3
Xmem_right_track_16.sc_dff_compact_0_.sky130_fd_sc_hd__dfrbp_1 mem_right_track_16.sc_dff_compact_0_.sky130_fd_sc_hd__dfrbp_1/D
+ mem_right_track_16.sc_dff_compact_0_.sky130_fd_sc_hd__dfrbp_1/Q mem_right_track_16.sc_dff_compact_0_.sky130_fd_sc_hd__dfrbp_1/Q_N
+ _19_/Y clkbuf_2_3_0_prog_clk/X VGND VPWR sky130_fd_sc_hd__dfrbp_1
XFILLER_19_150 VGND VPWR sky130_fd_sc_hd__decap_8
XFILLER_6_23 VGND VPWR sky130_fd_sc_hd__fill_2
XFILLER_25_131 VGND VPWR sky130_fd_sc_hd__decap_4
Xmux_right_track_10.mux_l1_in_0_.TGATE_0_.sky130_fd_sc_hd__ebufn_1 mux_right_track_10.INVTX1_0_.sky130_fd_sc_hd__inv_1/Y
+ mux_right_track_10.mux_l1_in_0_.TGATE_0_.sky130_fd_sc_hd__ebufn_1/TE_B mux_right_track_10.mux_l2_in_0_.TGATE_0_.sky130_fd_sc_hd__ebufn_1/A
+ VGND VPWR sky130_fd_sc_hd__ebufn_1
XANTENNA_mem_bottom_track_11.sc_dff_compact_1_.sky130_fd_sc_hd__dfrbp_1_RESET_B _19_/Y
+ VGND VPWR sky130_fd_sc_hd__diode_2
XANTENNA_mux_bottom_track_17.mux_l1_in_0_.TGATE_1_.sky130_fd_sc_hd__ebufn_1_A mux_bottom_track_17.INVTX1_1_.sky130_fd_sc_hd__inv_1/Y
+ VGND VPWR sky130_fd_sc_hd__diode_2
XFILLER_22_101 VGND VPWR sky130_fd_sc_hd__fill_2
XFILLER_26_75 VGND VPWR sky130_fd_sc_hd__decap_12
XANTENNA_mux_bottom_track_13.tap_buf4_0_.sky130_fd_sc_hd__inv_1_A mux_bottom_track_13.tap_buf4_0_.sky130_fd_sc_hd__inv_1/A
+ VGND VPWR sky130_fd_sc_hd__diode_2
Xmux_bottom_track_1.INVTX1_0_.sky130_fd_sc_hd__inv_1 chanx_right_in[7] mux_bottom_track_1.INVTX1_0_.sky130_fd_sc_hd__inv_1/Y
+ VGND VPWR sky130_fd_sc_hd__inv_1
XFILLER_9_138 VGND VPWR sky130_fd_sc_hd__fill_2
XFILLER_3_57 VGND VPWR sky130_fd_sc_hd__fill_2
XFILLER_23_32 VGND VPWR sky130_fd_sc_hd__fill_2
XFILLER_23_21 VGND VPWR sky130_fd_sc_hd__fill_2
XFILLER_23_10 VGND VPWR sky130_fd_sc_hd__decap_4
Xmux_bottom_track_13.mux_l1_in_0_.TGATE_0_.sky130_fd_sc_hd__ebufn_1 mux_bottom_track_13.INVTX1_0_.sky130_fd_sc_hd__inv_1/Y
+ mux_bottom_track_13.mux_l1_in_0_.TGATE_0_.sky130_fd_sc_hd__ebufn_1/TE_B mux_bottom_track_13.mux_l2_in_0_.TGATE_0_.sky130_fd_sc_hd__ebufn_1/A
+ VGND VPWR sky130_fd_sc_hd__ebufn_1
XANTENNA_mem_bottom_track_3.sc_dff_compact_1_.sky130_fd_sc_hd__dfrbp_1_D mem_bottom_track_3.sc_dff_compact_0_.sky130_fd_sc_hd__dfrbp_1/Q
+ VGND VPWR sky130_fd_sc_hd__diode_2
Xmux_bottom_track_3.mux_l1_in_0_.TGATE_0_.sky130_fd_sc_hd__ebufn_1 mux_bottom_track_3.INVTX1_0_.sky130_fd_sc_hd__inv_1/Y
+ mux_bottom_track_3.mux_l1_in_0_.TGATE_0_.sky130_fd_sc_hd__ebufn_1/TE_B mux_bottom_track_3.mux_l1_in_0_.TGATE_0_.sky130_fd_sc_hd__ebufn_1/Z
+ VGND VPWR sky130_fd_sc_hd__ebufn_1
X_48_ _48_/A chany_bottom_out[7] VGND VPWR sky130_fd_sc_hd__buf_2
XFILLER_15_7 VGND VPWR sky130_fd_sc_hd__fill_1
Xmux_right_track_6.mux_l2_in_0_.TGATE_0_.sky130_fd_sc_hd__ebufn_1 mux_right_track_6.mux_l2_in_0_.TGATE_0_.sky130_fd_sc_hd__ebufn_1/A
+ mux_right_track_6.mux_l2_in_0_.TGATE_0_.sky130_fd_sc_hd__ebufn_1/TE_B mux_right_track_6.tap_buf4_0_.sky130_fd_sc_hd__inv_1/A
+ VGND VPWR sky130_fd_sc_hd__ebufn_1
XFILLER_6_79 VGND VPWR sky130_fd_sc_hd__fill_2
XFILLER_25_154 VGND VPWR sky130_fd_sc_hd__decap_4
XFILLER_15_22 VGND VPWR sky130_fd_sc_hd__fill_2
XFILLER_15_11 VGND VPWR sky130_fd_sc_hd__decap_6
XFILLER_16_154 VGND VPWR sky130_fd_sc_hd__decap_4
XFILLER_16_143 VGND VPWR sky130_fd_sc_hd__decap_8
XFILLER_16_132 VGND VPWR sky130_fd_sc_hd__decap_8
XANTENNA_mux_right_track_8.mux_l1_in_0_.TGATE_1_.sky130_fd_sc_hd__ebufn_1_A mux_right_track_8.INVTX1_1_.sky130_fd_sc_hd__inv_1/Y
+ VGND VPWR sky130_fd_sc_hd__diode_2
XFILLER_26_87 VGND VPWR sky130_fd_sc_hd__decap_6
XFILLER_26_32 VGND VPWR sky130_fd_sc_hd__decap_12
XFILLER_13_157 VGND VPWR sky130_fd_sc_hd__fill_1
XFILLER_13_135 VGND VPWR sky130_fd_sc_hd__fill_2
XFILLER_13_102 VGND VPWR sky130_fd_sc_hd__fill_2
XANTENNA_mem_bottom_track_15.sc_dff_compact_1_.sky130_fd_sc_hd__dfrbp_1_D mem_bottom_track_15.sc_dff_compact_0_.sky130_fd_sc_hd__dfrbp_1/Q
+ VGND VPWR sky130_fd_sc_hd__diode_2
XANTENNA_mem_bottom_track_9.sc_dff_compact_0_.sky130_fd_sc_hd__dfrbp_1_RESET_B _19_/Y
+ VGND VPWR sky130_fd_sc_hd__diode_2
XANTENNA_mux_right_track_6.tap_buf4_0_.sky130_fd_sc_hd__inv_1_A mux_right_track_6.tap_buf4_0_.sky130_fd_sc_hd__inv_1/A
+ VGND VPWR sky130_fd_sc_hd__diode_2
Xmux_bottom_track_17.INVTX1_1_.sky130_fd_sc_hd__inv_1 bottom_left_grid_pin_15_ mux_bottom_track_17.INVTX1_1_.sky130_fd_sc_hd__inv_1/Y
+ VGND VPWR sky130_fd_sc_hd__inv_1
Xmux_right_track_2.INVTX1_1_.sky130_fd_sc_hd__inv_1 chany_bottom_in[6] mux_right_track_2.INVTX1_1_.sky130_fd_sc_hd__inv_1/Y
+ VGND VPWR sky130_fd_sc_hd__inv_1
XFILLER_12_67 VGND VPWR sky130_fd_sc_hd__decap_4
XFILLER_10_116 VGND VPWR sky130_fd_sc_hd__decap_8
XFILLER_5_6 VGND VPWR sky130_fd_sc_hd__fill_2
Xmem_right_track_8.sc_dff_compact_1_.sky130_fd_sc_hd__dfrbp_1 mem_right_track_8.sc_dff_compact_0_.sky130_fd_sc_hd__dfrbp_1/Q
+ mem_right_track_8.sc_dff_compact_1_.sky130_fd_sc_hd__dfrbp_1/Q mem_right_track_8.sc_dff_compact_1_.sky130_fd_sc_hd__dfrbp_1/Q_N
+ _19_/Y clkbuf_2_3_0_prog_clk/X VGND VPWR sky130_fd_sc_hd__dfrbp_1
XFILLER_5_131 VGND VPWR sky130_fd_sc_hd__fill_2
XANTENNA_mem_right_track_16.sc_dff_compact_0_.sky130_fd_sc_hd__dfrbp_1_RESET_B _19_/Y
+ VGND VPWR sky130_fd_sc_hd__diode_2
XFILLER_0_15 VGND VPWR sky130_fd_sc_hd__decap_12
XFILLER_2_145 VGND VPWR sky130_fd_sc_hd__decap_8
XFILLER_9_13 VGND VPWR sky130_fd_sc_hd__fill_2
XANTENNA_mux_right_track_12.mux_l1_in_0_.TGATE_1_.sky130_fd_sc_hd__ebufn_1_A mux_right_track_12.INVTX1_1_.sky130_fd_sc_hd__inv_1/Y
+ VGND VPWR sky130_fd_sc_hd__diode_2
X_47_ _47_/A chany_bottom_out[8] VGND VPWR sky130_fd_sc_hd__buf_2
XFILLER_18_77 VGND VPWR sky130_fd_sc_hd__fill_1
XFILLER_18_55 VGND VPWR sky130_fd_sc_hd__decap_12
XANTENNA_mux_bottom_track_1.mux_l2_in_0_.TGATE_0_.sky130_fd_sc_hd__ebufn_1_A mux_bottom_track_1.mux_l2_in_0_.TGATE_0_.sky130_fd_sc_hd__ebufn_1/A
+ VGND VPWR sky130_fd_sc_hd__diode_2
XANTENNA_mux_bottom_track_11.INVTX1_1_.sky130_fd_sc_hd__inv_1_A bottom_left_grid_pin_9_
+ VGND VPWR sky130_fd_sc_hd__diode_2
XANTENNA_clkbuf_1_0_0_prog_clk_A clkbuf_0_prog_clk/X VGND VPWR sky130_fd_sc_hd__diode_2
XFILLER_6_58 VGND VPWR sky130_fd_sc_hd__fill_2
XFILLER_15_89 VGND VPWR sky130_fd_sc_hd__fill_2
Xclkbuf_2_1_0_prog_clk clkbuf_2_0_0_prog_clk/A clkbuf_2_1_0_prog_clk/X VGND VPWR sky130_fd_sc_hd__clkbuf_1
XFILLER_26_44 VGND VPWR sky130_fd_sc_hd__decap_12
XANTENNA_mem_right_track_6.sc_dff_compact_0_.sky130_fd_sc_hd__dfrbp_1_CLK clkbuf_2_3_0_prog_clk/X
+ VGND VPWR sky130_fd_sc_hd__diode_2
XFILLER_13_147 VGND VPWR sky130_fd_sc_hd__fill_2
XFILLER_13_114 VGND VPWR sky130_fd_sc_hd__fill_2
XANTENNA_mem_right_track_16.sc_dff_compact_1_.sky130_fd_sc_hd__dfrbp_1_D mem_right_track_16.sc_dff_compact_0_.sky130_fd_sc_hd__dfrbp_1/Q
+ VGND VPWR sky130_fd_sc_hd__diode_2
XANTENNA_mem_bottom_track_5.sc_dff_compact_0_.sky130_fd_sc_hd__dfrbp_1_D mem_bottom_track_3.sc_dff_compact_1_.sky130_fd_sc_hd__dfrbp_1/Q
+ VGND VPWR sky130_fd_sc_hd__diode_2
XFILLER_9_118 VGND VPWR sky130_fd_sc_hd__fill_2
XANTENNA_mux_bottom_track_15.mux_l2_in_0_.TGATE_1_.sky130_fd_sc_hd__ebufn_1_A _31_/HI
+ VGND VPWR sky130_fd_sc_hd__diode_2
Xmux_right_track_16.INVTX1_0_.sky130_fd_sc_hd__inv_1 right_bottom_grid_pin_12_ mux_right_track_16.INVTX1_0_.sky130_fd_sc_hd__inv_1/Y
+ VGND VPWR sky130_fd_sc_hd__inv_1
Xmem_right_track_12.sc_dff_compact_0_.sky130_fd_sc_hd__dfrbp_1 mem_right_track_12.sc_dff_compact_0_.sky130_fd_sc_hd__dfrbp_1/D
+ mem_right_track_12.sc_dff_compact_0_.sky130_fd_sc_hd__dfrbp_1/Q mem_right_track_12.sc_dff_compact_0_.sky130_fd_sc_hd__dfrbp_1/Q_N
+ _19_/Y clkbuf_2_2_0_prog_clk/X VGND VPWR sky130_fd_sc_hd__dfrbp_1
XFILLER_3_26 VGND VPWR sky130_fd_sc_hd__fill_2
XFILLER_12_24 VGND VPWR sky130_fd_sc_hd__fill_1
XFILLER_5_110 VGND VPWR sky130_fd_sc_hd__fill_2
XFILLER_23_56 VGND VPWR sky130_fd_sc_hd__fill_1
Xmux_right_track_6.mux_l1_in_0_.TGATE_1_.sky130_fd_sc_hd__ebufn_1 mux_right_track_6.INVTX1_1_.sky130_fd_sc_hd__inv_1/Y
+ mux_right_track_6.mux_l1_in_0_.TGATE_1_.sky130_fd_sc_hd__ebufn_1/TE_B mux_right_track_6.mux_l2_in_0_.TGATE_0_.sky130_fd_sc_hd__ebufn_1/A
+ VGND VPWR sky130_fd_sc_hd__ebufn_1
XFILLER_0_27 VGND VPWR sky130_fd_sc_hd__fill_2
XANTENNA_mux_right_track_2.INVTX1_1_.sky130_fd_sc_hd__inv_1_A chany_bottom_in[6] VGND
+ VPWR sky130_fd_sc_hd__diode_2
XANTENNA_mem_bottom_track_11.sc_dff_compact_1_.sky130_fd_sc_hd__dfrbp_1_CLK clkbuf_2_0_0_prog_clk/X
+ VGND VPWR sky130_fd_sc_hd__diode_2
X_46_ _46_/A chanx_right_out[0] VGND VPWR sky130_fd_sc_hd__buf_2
XFILLER_18_89 VGND VPWR sky130_fd_sc_hd__decap_3
XFILLER_18_67 VGND VPWR sky130_fd_sc_hd__decap_3
XFILLER_18_23 VGND VPWR sky130_fd_sc_hd__fill_2
XANTENNA_mux_bottom_track_5.INVTX1_1_.sky130_fd_sc_hd__inv_1_A bottom_left_grid_pin_3_
+ VGND VPWR sky130_fd_sc_hd__diode_2
X_29_ _29_/HI _29_/LO VGND VPWR sky130_fd_sc_hd__conb_1
XFILLER_20_24 VGND VPWR sky130_fd_sc_hd__fill_1
XFILLER_1_70 VGND VPWR sky130_fd_sc_hd__fill_2
XFILLER_20_57 VGND VPWR sky130_fd_sc_hd__fill_2
XFILLER_19_131 VGND VPWR sky130_fd_sc_hd__decap_4
XFILLER_20_7 VGND VPWR sky130_fd_sc_hd__decap_8
XANTENNA_mem_right_track_0.sc_dff_compact_0_.sky130_fd_sc_hd__dfrbp_1_D ccff_head
+ VGND VPWR sky130_fd_sc_hd__diode_2
XFILLER_13_6 VGND VPWR sky130_fd_sc_hd__fill_2
XANTENNA_mem_bottom_track_17.sc_dff_compact_0_.sky130_fd_sc_hd__dfrbp_1_D mem_bottom_track_15.sc_dff_compact_1_.sky130_fd_sc_hd__dfrbp_1/Q
+ VGND VPWR sky130_fd_sc_hd__diode_2
XFILLER_25_101 VGND VPWR sky130_fd_sc_hd__fill_2
XFILLER_15_57 VGND VPWR sky130_fd_sc_hd__fill_2
XFILLER_26_56 VGND VPWR sky130_fd_sc_hd__decap_6
XANTENNA_mux_right_track_6.mux_l2_in_0_.TGATE_1_.sky130_fd_sc_hd__ebufn_1_A _26_/HI
+ VGND VPWR sky130_fd_sc_hd__diode_2
XFILLER_12_36 VGND VPWR sky130_fd_sc_hd__fill_2
Xmux_right_track_12.tap_buf4_0_.sky130_fd_sc_hd__inv_1 mux_right_track_12.tap_buf4_0_.sky130_fd_sc_hd__inv_1/A
+ _40_/A VGND VPWR sky130_fd_sc_hd__inv_1
XFILLER_5_155 VGND VPWR sky130_fd_sc_hd__decap_3
XANTENNA_mux_bottom_track_11.tap_buf4_0_.sky130_fd_sc_hd__inv_1_A mux_bottom_track_11.tap_buf4_0_.sky130_fd_sc_hd__inv_1/A
+ VGND VPWR sky130_fd_sc_hd__diode_2
XANTENNA_mux_right_track_16.mux_l2_in_0_.TGATE_0_.sky130_fd_sc_hd__ebufn_1_A mux_right_track_16.mux_l1_in_0_.TGATE_0_.sky130_fd_sc_hd__ebufn_1/Z
+ VGND VPWR sky130_fd_sc_hd__diode_2
XFILLER_23_68 VGND VPWR sky130_fd_sc_hd__fill_2
XFILLER_2_136 VGND VPWR sky130_fd_sc_hd__fill_1
XANTENNA_mem_right_track_14.sc_dff_compact_1_.sky130_fd_sc_hd__dfrbp_1_CLK clkbuf_2_2_0_prog_clk/X
+ VGND VPWR sky130_fd_sc_hd__diode_2
XANTENNA_mux_bottom_track_1.mux_l1_in_0_.TGATE_0_.sky130_fd_sc_hd__ebufn_1_A mux_bottom_track_1.INVTX1_0_.sky130_fd_sc_hd__inv_1/Y
+ VGND VPWR sky130_fd_sc_hd__diode_2
XFILLER_9_59 VGND VPWR sky130_fd_sc_hd__fill_2
XFILLER_9_26 VGND VPWR sky130_fd_sc_hd__fill_2
X_45_ _45_/A chanx_right_out[1] VGND VPWR sky130_fd_sc_hd__buf_2
XANTENNA_mux_right_track_10.mux_l2_in_0_.TGATE_1_.sky130_fd_sc_hd__ebufn_1_A _20_/HI
+ VGND VPWR sky130_fd_sc_hd__diode_2
Xmux_right_track_4.mux_l1_in_0_.TGATE_0_.sky130_fd_sc_hd__ebufn_1 mux_right_track_4.INVTX1_0_.sky130_fd_sc_hd__inv_1/Y
+ mux_right_track_4.mux_l1_in_0_.TGATE_0_.sky130_fd_sc_hd__ebufn_1/TE_B mux_right_track_4.mux_l2_in_0_.TGATE_0_.sky130_fd_sc_hd__ebufn_1/A
+ VGND VPWR sky130_fd_sc_hd__ebufn_1
Xmem_right_track_4.sc_dff_compact_1_.sky130_fd_sc_hd__dfrbp_1 mem_right_track_4.sc_dff_compact_1_.sky130_fd_sc_hd__dfrbp_1/D
+ mem_right_track_4.sc_dff_compact_1_.sky130_fd_sc_hd__dfrbp_1/Q mem_right_track_4.sc_dff_compact_1_.sky130_fd_sc_hd__dfrbp_1/Q_N
+ _19_/Y clkbuf_2_3_0_prog_clk/X VGND VPWR sky130_fd_sc_hd__dfrbp_1
X_28_ _28_/HI _28_/LO VGND VPWR sky130_fd_sc_hd__conb_1
XFILLER_1_82 VGND VPWR sky130_fd_sc_hd__decap_3
Xmux_bottom_track_7.INVTX1_1_.sky130_fd_sc_hd__inv_1 bottom_left_grid_pin_5_ mux_bottom_track_7.INVTX1_1_.sky130_fd_sc_hd__inv_1/Y
+ VGND VPWR sky130_fd_sc_hd__inv_1
XFILLER_10_80 VGND VPWR sky130_fd_sc_hd__fill_2
XFILLER_6_27 VGND VPWR sky130_fd_sc_hd__fill_2
XFILLER_22_127 VGND VPWR sky130_fd_sc_hd__decap_12
Xmux_bottom_track_1.mux_l2_in_0_.TGATE_1_.sky130_fd_sc_hd__ebufn_1 _28_/HI mux_bottom_track_1.mux_l2_in_0_.TGATE_1_.sky130_fd_sc_hd__ebufn_1/TE_B
+ mux_bottom_track_1.tap_buf4_0_.sky130_fd_sc_hd__inv_1/A VGND VPWR sky130_fd_sc_hd__ebufn_1
Xmux_bottom_track_11.mux_l2_in_0_.TGATE_1_.sky130_fd_sc_hd__ebufn_1 _29_/HI mux_bottom_track_11.mux_l2_in_0_.TGATE_1_.sky130_fd_sc_hd__ebufn_1/TE_B
+ mux_bottom_track_11.tap_buf4_0_.sky130_fd_sc_hd__inv_1/A VGND VPWR sky130_fd_sc_hd__ebufn_1
XANTENNA_mux_bottom_track_15.mux_l1_in_0_.TGATE_1_.sky130_fd_sc_hd__ebufn_1_A mux_bottom_track_15.INVTX1_1_.sky130_fd_sc_hd__inv_1/Y
+ VGND VPWR sky130_fd_sc_hd__diode_2
XANTENNA_mem_bottom_track_7.sc_dff_compact_1_.sky130_fd_sc_hd__dfrbp_1_CLK clkbuf_2_0_0_prog_clk/X
+ VGND VPWR sky130_fd_sc_hd__diode_2
XFILLER_7_70 VGND VPWR sky130_fd_sc_hd__fill_2
XANTENNA_mux_bottom_track_9.tap_buf4_0_.sky130_fd_sc_hd__inv_1_A mux_bottom_track_9.tap_buf4_0_.sky130_fd_sc_hd__inv_1/A
+ VGND VPWR sky130_fd_sc_hd__diode_2
Xmem_bottom_track_15.sc_dff_compact_0_.sky130_fd_sc_hd__dfrbp_1 mem_bottom_track_15.sc_dff_compact_0_.sky130_fd_sc_hd__dfrbp_1/D
+ mem_bottom_track_15.sc_dff_compact_0_.sky130_fd_sc_hd__dfrbp_1/Q mem_bottom_track_15.sc_dff_compact_0_.sky130_fd_sc_hd__dfrbp_1/Q_N
+ _19_/Y clkbuf_2_1_0_prog_clk/X VGND VPWR sky130_fd_sc_hd__dfrbp_1
XFILLER_23_36 VGND VPWR sky130_fd_sc_hd__decap_12
XFILLER_23_25 VGND VPWR sky130_fd_sc_hd__decap_4
XANTENNA_mux_right_track_4.tap_buf4_0_.sky130_fd_sc_hd__inv_1_A mux_right_track_4.tap_buf4_0_.sky130_fd_sc_hd__inv_1/A
+ VGND VPWR sky130_fd_sc_hd__diode_2
XFILLER_3_6 VGND VPWR sky130_fd_sc_hd__fill_2
X_44_ _44_/A chanx_right_out[2] VGND VPWR sky130_fd_sc_hd__buf_2
Xmux_bottom_track_13.INVTX1_1_.sky130_fd_sc_hd__inv_1 bottom_left_grid_pin_11_ mux_bottom_track_13.INVTX1_1_.sky130_fd_sc_hd__inv_1/Y
+ VGND VPWR sky130_fd_sc_hd__inv_1
XANTENNA_mem_bottom_track_7.sc_dff_compact_0_.sky130_fd_sc_hd__dfrbp_1_RESET_B _19_/Y
+ VGND VPWR sky130_fd_sc_hd__diode_2
XFILLER_1_3 VGND VPWR sky130_fd_sc_hd__decap_4
X_27_ _27_/HI _27_/LO VGND VPWR sky130_fd_sc_hd__conb_1
XANTENNA_mux_bottom_track_13.INVTX1_0_.sky130_fd_sc_hd__inv_1_A chanx_right_in[1]
+ VGND VPWR sky130_fd_sc_hd__diode_2
XANTENNA_mem_bottom_track_9.sc_dff_compact_1_.sky130_fd_sc_hd__dfrbp_1_RESET_B _19_/Y
+ VGND VPWR sky130_fd_sc_hd__diode_2
Xmux_right_track_6.tap_buf4_0_.sky130_fd_sc_hd__inv_1 mux_right_track_6.tap_buf4_0_.sky130_fd_sc_hd__inv_1/A
+ _43_/A VGND VPWR sky130_fd_sc_hd__inv_1
XFILLER_25_114 VGND VPWR sky130_fd_sc_hd__fill_2
XFILLER_15_26 VGND VPWR sky130_fd_sc_hd__fill_2
XPHY_120 VGND VPWR sky130_fd_sc_hd__tapvpwrvgnd_1
XANTENNA_mem_right_track_14.sc_dff_compact_0_.sky130_fd_sc_hd__dfrbp_1_RESET_B _19_/Y
+ VGND VPWR sky130_fd_sc_hd__diode_2
XPHY_0 VGND VPWR sky130_fd_sc_hd__decap_3
XFILLER_21_150 VGND VPWR sky130_fd_sc_hd__decap_8
XANTENNA_mem_right_track_16.sc_dff_compact_1_.sky130_fd_sc_hd__dfrbp_1_RESET_B _19_/Y
+ VGND VPWR sky130_fd_sc_hd__diode_2
XANTENNA_mux_right_track_6.mux_l1_in_0_.TGATE_1_.sky130_fd_sc_hd__ebufn_1_A mux_right_track_6.INVTX1_1_.sky130_fd_sc_hd__inv_1/Y
+ VGND VPWR sky130_fd_sc_hd__diode_2
Xmem_bottom_track_9.sc_dff_compact_0_.sky130_fd_sc_hd__dfrbp_1 mem_bottom_track_9.sc_dff_compact_0_.sky130_fd_sc_hd__dfrbp_1/D
+ mem_bottom_track_9.sc_dff_compact_0_.sky130_fd_sc_hd__dfrbp_1/Q mem_bottom_track_9.sc_dff_compact_0_.sky130_fd_sc_hd__dfrbp_1/Q_N
+ _19_/Y clkbuf_2_0_0_prog_clk/X VGND VPWR sky130_fd_sc_hd__dfrbp_1
XANTENNA_mem_right_track_0.sc_dff_compact_1_.sky130_fd_sc_hd__dfrbp_1_CLK clkbuf_2_2_0_prog_clk/X
+ VGND VPWR sky130_fd_sc_hd__diode_2
Xmux_right_track_16.mux_l2_in_0_.TGATE_1_.sky130_fd_sc_hd__ebufn_1 _23_/HI mux_right_track_16.mux_l2_in_0_.TGATE_1_.sky130_fd_sc_hd__ebufn_1/TE_B
+ mux_right_track_16.tap_buf4_0_.sky130_fd_sc_hd__inv_1/A VGND VPWR sky130_fd_sc_hd__ebufn_1
XFILLER_8_154 VGND VPWR sky130_fd_sc_hd__decap_4
XFILLER_12_27 VGND VPWR sky130_fd_sc_hd__fill_2
XFILLER_12_16 VGND VPWR sky130_fd_sc_hd__fill_2
XANTENNA_mux_right_track_16.mux_l1_in_0_.TGATE_0_.sky130_fd_sc_hd__ebufn_1_A mux_right_track_16.INVTX1_0_.sky130_fd_sc_hd__inv_1/Y
+ VGND VPWR sky130_fd_sc_hd__diode_2
XANTENNA__42__A _42_/A VGND VPWR sky130_fd_sc_hd__diode_2
Xclkbuf_2_0_0_prog_clk clkbuf_2_0_0_prog_clk/A clkbuf_2_0_0_prog_clk/X VGND VPWR sky130_fd_sc_hd__clkbuf_1
XFILLER_5_135 VGND VPWR sky130_fd_sc_hd__fill_2
XFILLER_23_59 VGND VPWR sky130_fd_sc_hd__fill_2
XFILLER_23_48 VGND VPWR sky130_fd_sc_hd__decap_8
XFILLER_2_116 VGND VPWR sky130_fd_sc_hd__decap_8
XFILLER_9_17 VGND VPWR sky130_fd_sc_hd__fill_2
X_43_ _43_/A chanx_right_out[3] VGND VPWR sky130_fd_sc_hd__buf_2
Xmux_right_track_12.INVTX1_0_.sky130_fd_sc_hd__inv_1 right_top_grid_pin_13_ mux_right_track_12.INVTX1_0_.sky130_fd_sc_hd__inv_1/Y
+ VGND VPWR sky130_fd_sc_hd__inv_1
XANTENNA_mux_right_track_4.INVTX1_0_.sky130_fd_sc_hd__inv_1_A right_top_grid_pin_5_
+ VGND VPWR sky130_fd_sc_hd__diode_2
XANTENNA_mux_right_track_10.mux_l1_in_0_.TGATE_1_.sky130_fd_sc_hd__ebufn_1_A mux_right_track_10.INVTX1_1_.sky130_fd_sc_hd__inv_1/Y
+ VGND VPWR sky130_fd_sc_hd__diode_2
X_26_ _26_/HI _26_/LO VGND VPWR sky130_fd_sc_hd__conb_1
XFILLER_20_49 VGND VPWR sky130_fd_sc_hd__decap_8
XFILLER_20_38 VGND VPWR sky130_fd_sc_hd__fill_2
XFILLER_20_27 VGND VPWR sky130_fd_sc_hd__fill_2
Xmux_bottom_track_9.mux_l2_in_0_.TGATE_1_.sky130_fd_sc_hd__ebufn_1 _36_/HI mux_bottom_track_9.mux_l2_in_0_.TGATE_1_.sky130_fd_sc_hd__ebufn_1/TE_B
+ mux_bottom_track_9.tap_buf4_0_.sky130_fd_sc_hd__inv_1/A VGND VPWR sky130_fd_sc_hd__ebufn_1
XFILLER_1_95 VGND VPWR sky130_fd_sc_hd__fill_2
XANTENNA_mux_bottom_track_7.INVTX1_0_.sky130_fd_sc_hd__inv_1_A chanx_right_in[4] VGND
+ VPWR sky130_fd_sc_hd__diode_2
XANTENNA__50__A _50_/A VGND VPWR sky130_fd_sc_hd__diode_2
XPHY_121 VGND VPWR sky130_fd_sc_hd__tapvpwrvgnd_1
XPHY_110 VGND VPWR sky130_fd_sc_hd__tapvpwrvgnd_1
XANTENNA__45__A _45_/A VGND VPWR sky130_fd_sc_hd__diode_2
Xmem_right_track_0.sc_dff_compact_1_.sky130_fd_sc_hd__dfrbp_1 mem_right_track_0.sc_dff_compact_1_.sky130_fd_sc_hd__dfrbp_1/D
+ mem_right_track_0.sc_dff_compact_1_.sky130_fd_sc_hd__dfrbp_1/Q mem_right_track_0.sc_dff_compact_1_.sky130_fd_sc_hd__dfrbp_1/Q_N
+ _19_/Y clkbuf_2_2_0_prog_clk/X VGND VPWR sky130_fd_sc_hd__dfrbp_1
XFILLER_11_6 VGND VPWR sky130_fd_sc_hd__fill_2
XPHY_1 VGND VPWR sky130_fd_sc_hd__decap_3
XFILLER_26_15 VGND VPWR sky130_fd_sc_hd__decap_12
XFILLER_13_118 VGND VPWR sky130_fd_sc_hd__fill_2
XFILLER_12_151 VGND VPWR sky130_fd_sc_hd__fill_2
XANTENNA_mux_bottom_track_13.mux_l2_in_0_.TGATE_1_.sky130_fd_sc_hd__ebufn_1_A _30_/HI
+ VGND VPWR sky130_fd_sc_hd__diode_2
XFILLER_5_114 VGND VPWR sky130_fd_sc_hd__decap_6
XFILLER_5_147 VGND VPWR sky130_fd_sc_hd__decap_8
XANTENNA_mem_bottom_track_9.sc_dff_compact_1_.sky130_fd_sc_hd__dfrbp_1_D mem_bottom_track_9.sc_dff_compact_0_.sky130_fd_sc_hd__dfrbp_1/Q
+ VGND VPWR sky130_fd_sc_hd__diode_2
Xmux_right_track_14.mux_l2_in_0_.TGATE_0_.sky130_fd_sc_hd__ebufn_1 mux_right_track_14.mux_l1_in_0_.TGATE_0_.sky130_fd_sc_hd__ebufn_1/Z
+ mux_right_track_14.mux_l2_in_0_.TGATE_0_.sky130_fd_sc_hd__ebufn_1/TE_B mux_right_track_14.tap_buf4_0_.sky130_fd_sc_hd__inv_1/A
+ VGND VPWR sky130_fd_sc_hd__ebufn_1
XFILLER_4_40 VGND VPWR sky130_fd_sc_hd__fill_2
XFILLER_4_84 VGND VPWR sky130_fd_sc_hd__decap_3
XFILLER_23_16 VGND VPWR sky130_fd_sc_hd__fill_2
XFILLER_2_139 VGND VPWR sky130_fd_sc_hd__fill_2
XANTENNA_mux_right_track_14.INVTX1_1_.sky130_fd_sc_hd__inv_1_A chany_bottom_in[0]
+ VGND VPWR sky130_fd_sc_hd__diode_2
XANTENNA__53__A _53_/A VGND VPWR sky130_fd_sc_hd__diode_2
X_42_ _42_/A chanx_right_out[4] VGND VPWR sky130_fd_sc_hd__buf_2
XFILLER_1_150 VGND VPWR sky130_fd_sc_hd__decap_8
XFILLER_18_27 VGND VPWR sky130_fd_sc_hd__fill_2
XANTENNA__48__A _48_/A VGND VPWR sky130_fd_sc_hd__diode_2
X_25_ _25_/HI _25_/LO VGND VPWR sky130_fd_sc_hd__conb_1
XFILLER_1_74 VGND VPWR sky130_fd_sc_hd__decap_8
XFILLER_1_41 VGND VPWR sky130_fd_sc_hd__fill_2
Xmem_bottom_track_11.sc_dff_compact_0_.sky130_fd_sc_hd__dfrbp_1 mem_bottom_track_9.sc_dff_compact_1_.sky130_fd_sc_hd__dfrbp_1/Q
+ mem_bottom_track_11.sc_dff_compact_0_.sky130_fd_sc_hd__dfrbp_1/Q mem_bottom_track_11.sc_dff_compact_0_.sky130_fd_sc_hd__dfrbp_1/Q_N
+ _19_/Y clkbuf_2_0_0_prog_clk/X VGND VPWR sky130_fd_sc_hd__dfrbp_1
XFILLER_25_105 VGND VPWR sky130_fd_sc_hd__decap_4
XFILLER_19_135 VGND VPWR sky130_fd_sc_hd__fill_1
XANTENNA_mem_right_track_8.sc_dff_compact_1_.sky130_fd_sc_hd__dfrbp_1_CLK clkbuf_2_3_0_prog_clk/X
+ VGND VPWR sky130_fd_sc_hd__diode_2
XANTENNA_clkbuf_2_2_0_prog_clk_A clkbuf_2_3_0_prog_clk/A VGND VPWR sky130_fd_sc_hd__diode_2
Xmux_bottom_track_17.mux_l2_in_0_.TGATE_0_.sky130_fd_sc_hd__ebufn_1 mux_bottom_track_17.mux_l1_in_0_.TGATE_1_.sky130_fd_sc_hd__ebufn_1/Z
+ mux_bottom_track_17.mux_l2_in_0_.TGATE_0_.sky130_fd_sc_hd__ebufn_1/TE_B mux_bottom_track_17.tap_buf4_0_.sky130_fd_sc_hd__inv_1/A
+ VGND VPWR sky130_fd_sc_hd__ebufn_1
XFILLER_25_138 VGND VPWR sky130_fd_sc_hd__decap_6
XFILLER_25_127 VGND VPWR sky130_fd_sc_hd__fill_2
XPHY_100 VGND VPWR sky130_fd_sc_hd__tapvpwrvgnd_1
XFILLER_16_116 VGND VPWR sky130_fd_sc_hd__decap_6
Xmux_bottom_track_7.mux_l2_in_0_.TGATE_0_.sky130_fd_sc_hd__ebufn_1 mux_bottom_track_7.mux_l2_in_0_.TGATE_0_.sky130_fd_sc_hd__ebufn_1/A
+ mux_bottom_track_7.mux_l2_in_0_.TGATE_0_.sky130_fd_sc_hd__ebufn_1/TE_B mux_bottom_track_7.tap_buf4_0_.sky130_fd_sc_hd__inv_1/A
+ VGND VPWR sky130_fd_sc_hd__ebufn_1
XPHY_122 VGND VPWR sky130_fd_sc_hd__tapvpwrvgnd_1
XPHY_111 VGND VPWR sky130_fd_sc_hd__tapvpwrvgnd_1
XANTENNA_mem_right_track_4.sc_dff_compact_1_.sky130_fd_sc_hd__dfrbp_1_D mem_right_track_4.sc_dff_compact_1_.sky130_fd_sc_hd__dfrbp_1/D
+ VGND VPWR sky130_fd_sc_hd__diode_2
XPHY_2 VGND VPWR sky130_fd_sc_hd__decap_3
XFILLER_26_27 VGND VPWR sky130_fd_sc_hd__decap_4
Xmux_bottom_track_1.tap_buf4_0_.sky130_fd_sc_hd__inv_1 mux_bottom_track_1.tap_buf4_0_.sky130_fd_sc_hd__inv_1/A
+ _55_/A VGND VPWR sky130_fd_sc_hd__inv_1
Xmux_bottom_track_3.INVTX1_1_.sky130_fd_sc_hd__inv_1 bottom_left_grid_pin_1_ mux_bottom_track_3.INVTX1_1_.sky130_fd_sc_hd__inv_1/Y
+ VGND VPWR sky130_fd_sc_hd__inv_1
XANTENNA_mem_bottom_track_11.sc_dff_compact_0_.sky130_fd_sc_hd__dfrbp_1_CLK clkbuf_2_0_0_prog_clk/X
+ VGND VPWR sky130_fd_sc_hd__diode_2
XFILLER_8_145 VGND VPWR sky130_fd_sc_hd__decap_8
XANTENNA_mux_right_track_4.mux_l2_in_0_.TGATE_1_.sky130_fd_sc_hd__ebufn_1_A _25_/HI
+ VGND VPWR sky130_fd_sc_hd__diode_2
Xmux_right_track_6.INVTX1_0_.sky130_fd_sc_hd__inv_1 right_top_grid_pin_7_ mux_right_track_6.INVTX1_0_.sky130_fd_sc_hd__inv_1/Y
+ VGND VPWR sky130_fd_sc_hd__inv_1
Xmux_right_track_2.mux_l2_in_0_.TGATE_1_.sky130_fd_sc_hd__ebufn_1 _24_/HI mux_right_track_2.mux_l2_in_0_.TGATE_1_.sky130_fd_sc_hd__ebufn_1/TE_B
+ mux_right_track_2.tap_buf4_0_.sky130_fd_sc_hd__inv_1/A VGND VPWR sky130_fd_sc_hd__ebufn_1
XANTENNA_mux_bottom_track_7.tap_buf4_0_.sky130_fd_sc_hd__inv_1_A mux_bottom_track_7.tap_buf4_0_.sky130_fd_sc_hd__inv_1/A
+ VGND VPWR sky130_fd_sc_hd__diode_2
XANTENNA_mux_right_track_14.mux_l2_in_0_.TGATE_0_.sky130_fd_sc_hd__ebufn_1_A mux_right_track_14.mux_l1_in_0_.TGATE_0_.sky130_fd_sc_hd__ebufn_1/Z
+ VGND VPWR sky130_fd_sc_hd__diode_2
XFILLER_4_52 VGND VPWR sky130_fd_sc_hd__decap_6
XFILLER_4_96 VGND VPWR sky130_fd_sc_hd__fill_2
X_41_ _41_/A chanx_right_out[5] VGND VPWR sky130_fd_sc_hd__buf_2
Xmem_bottom_track_5.sc_dff_compact_0_.sky130_fd_sc_hd__dfrbp_1 mem_bottom_track_3.sc_dff_compact_1_.sky130_fd_sc_hd__dfrbp_1/Q
+ mem_bottom_track_5.sc_dff_compact_0_.sky130_fd_sc_hd__dfrbp_1/Q mem_bottom_track_5.sc_dff_compact_0_.sky130_fd_sc_hd__dfrbp_1/Q_N
+ _19_/Y clkbuf_2_2_0_prog_clk/X VGND VPWR sky130_fd_sc_hd__dfrbp_1
XFILLER_24_93 VGND VPWR sky130_fd_sc_hd__decap_6
XFILLER_24_60 VGND VPWR sky130_fd_sc_hd__decap_12
Xmux_bottom_track_17.tap_buf4_0_.sky130_fd_sc_hd__inv_1 mux_bottom_track_17.tap_buf4_0_.sky130_fd_sc_hd__inv_1/A
+ _47_/A VGND VPWR sky130_fd_sc_hd__inv_1
X_24_ _24_/HI _24_/LO VGND VPWR sky130_fd_sc_hd__conb_1
XFILLER_20_18 VGND VPWR sky130_fd_sc_hd__decap_6
XANTENNA_mux_right_track_2.tap_buf4_0_.sky130_fd_sc_hd__inv_1_A mux_right_track_2.tap_buf4_0_.sky130_fd_sc_hd__inv_1/A
+ VGND VPWR sky130_fd_sc_hd__diode_2