* NGSPICE file created from sb_0__1_.ext - technology: sky130A

* Black-box entry subcircuit for sky130_fd_sc_hd__diode_2 abstract view
.subckt sky130_fd_sc_hd__diode_2 DIODE VGND VPWR
.ends

* Black-box entry subcircuit for sky130_fd_sc_hd__decap_3 abstract view
.subckt sky130_fd_sc_hd__decap_3 VGND VPWR
.ends

* Black-box entry subcircuit for sky130_fd_sc_hd__fill_1 abstract view
.subckt sky130_fd_sc_hd__fill_1 VGND VPWR
.ends

* Black-box entry subcircuit for sky130_fd_sc_hd__decap_12 abstract view
.subckt sky130_fd_sc_hd__decap_12 VGND VPWR
.ends

* Black-box entry subcircuit for sky130_fd_sc_hd__dfrbp_1 abstract view
.subckt sky130_fd_sc_hd__dfrbp_1 D Q Q_N RESET_B CLK VGND VPWR
.ends

* Black-box entry subcircuit for sky130_fd_sc_hd__decap_8 abstract view
.subckt sky130_fd_sc_hd__decap_8 VGND VPWR
.ends

* Black-box entry subcircuit for sky130_fd_sc_hd__fill_2 abstract view
.subckt sky130_fd_sc_hd__fill_2 VGND VPWR
.ends

* Black-box entry subcircuit for sky130_fd_sc_hd__ebufn_1 abstract view
.subckt sky130_fd_sc_hd__ebufn_1 A TE_B Z VGND VPWR
.ends

* Black-box entry subcircuit for sky130_fd_sc_hd__buf_2 abstract view
.subckt sky130_fd_sc_hd__buf_2 A X VGND VPWR
.ends

* Black-box entry subcircuit for sky130_fd_sc_hd__inv_1 abstract view
.subckt sky130_fd_sc_hd__inv_1 A Y VGND VPWR
.ends

* Black-box entry subcircuit for sky130_fd_sc_hd__decap_6 abstract view
.subckt sky130_fd_sc_hd__decap_6 VGND VPWR
.ends

* Black-box entry subcircuit for sky130_fd_sc_hd__decap_4 abstract view
.subckt sky130_fd_sc_hd__decap_4 VGND VPWR
.ends

* Black-box entry subcircuit for sky130_fd_sc_hd__clkbuf_1 abstract view
.subckt sky130_fd_sc_hd__clkbuf_1 A X VGND VPWR
.ends

* Black-box entry subcircuit for sky130_fd_sc_hd__tapvpwrvgnd_1 abstract view
.subckt sky130_fd_sc_hd__tapvpwrvgnd_1 VGND VPWR
.ends

* Black-box entry subcircuit for sky130_fd_sc_hd__conb_1 abstract view
.subckt sky130_fd_sc_hd__conb_1 HI LO VGND VPWR
.ends

* Black-box entry subcircuit for sky130_fd_sc_hd__clkbuf_16 abstract view
.subckt sky130_fd_sc_hd__clkbuf_16 A X VGND VPWR
.ends

* Black-box entry subcircuit for sky130_fd_sc_hd__inv_8 abstract view
.subckt sky130_fd_sc_hd__inv_8 A Y VGND VPWR
.ends

.subckt sb_0__1_ bottom_left_grid_pin_11_ bottom_left_grid_pin_13_ bottom_left_grid_pin_15_
+ bottom_left_grid_pin_1_ bottom_left_grid_pin_3_ bottom_left_grid_pin_5_ bottom_left_grid_pin_7_
+ bottom_left_grid_pin_9_ bottom_right_grid_pin_11_ ccff_head ccff_tail chanx_right_in[0]
+ chanx_right_in[1] chanx_right_in[2] chanx_right_in[3] chanx_right_in[4] chanx_right_in[5]
+ chanx_right_in[6] chanx_right_in[7] chanx_right_in[8] chanx_right_out[0] chanx_right_out[1]
+ chanx_right_out[2] chanx_right_out[3] chanx_right_out[4] chanx_right_out[5] chanx_right_out[6]
+ chanx_right_out[7] chanx_right_out[8] chany_bottom_in[0] chany_bottom_in[1] chany_bottom_in[2]
+ chany_bottom_in[3] chany_bottom_in[4] chany_bottom_in[5] chany_bottom_in[6] chany_bottom_in[7]
+ chany_bottom_in[8] chany_bottom_out[0] chany_bottom_out[1] chany_bottom_out[2] chany_bottom_out[3]
+ chany_bottom_out[4] chany_bottom_out[5] chany_bottom_out[6] chany_bottom_out[7]
+ chany_bottom_out[8] chany_top_in[0] chany_top_in[1] chany_top_in[2] chany_top_in[3]
+ chany_top_in[4] chany_top_in[5] chany_top_in[6] chany_top_in[7] chany_top_in[8]
+ chany_top_out[0] chany_top_out[1] chany_top_out[2] chany_top_out[3] chany_top_out[4]
+ chany_top_out[5] chany_top_out[6] chany_top_out[7] chany_top_out[8] pReset prog_clk
+ right_bottom_grid_pin_12_ right_top_grid_pin_10_ top_left_grid_pin_11_ top_left_grid_pin_13_
+ top_left_grid_pin_15_ top_left_grid_pin_1_ top_left_grid_pin_3_ top_left_grid_pin_5_
+ top_left_grid_pin_7_ top_left_grid_pin_9_ top_right_grid_pin_11_ VPWR VGND
XANTENNA_mux_top_track_0.INVTX1_5_.sky130_fd_sc_hd__inv_1_A chanx_right_in[7] VGND
+ VPWR sky130_fd_sc_hd__diode_2
XANTENNA_mux_right_track_8.mux_l2_in_0_.TGATE_1_.sky130_fd_sc_hd__ebufn_1_A _27_/HI
+ VGND VPWR sky130_fd_sc_hd__diode_2
XFILLER_9_159 VGND VPWR sky130_fd_sc_hd__decap_3
XFILLER_13_100 VGND VPWR sky130_fd_sc_hd__fill_1
XFILLER_8_170 VGND VPWR sky130_fd_sc_hd__decap_12
Xmem_bottom_track_1.sc_dff_compact_1_.sky130_fd_sc_hd__dfrbp_1 mem_bottom_track_1.sc_dff_compact_0_.sky130_fd_sc_hd__dfrbp_1/Q
+ mem_bottom_track_1.sc_dff_compact_2_.sky130_fd_sc_hd__dfrbp_1/D mem_bottom_track_1.sc_dff_compact_1_.sky130_fd_sc_hd__dfrbp_1/Q_N
+ _14_/Y clkbuf_2_3_0_prog_clk/X VGND VPWR sky130_fd_sc_hd__dfrbp_1
XFILLER_6_129 VGND VPWR sky130_fd_sc_hd__decap_8
XFILLER_12_43 VGND VPWR sky130_fd_sc_hd__fill_2
XFILLER_12_32 VGND VPWR sky130_fd_sc_hd__fill_2
XANTENNA_mem_bottom_track_1.sc_dff_compact_5_.sky130_fd_sc_hd__dfrbp_1_D mem_bottom_track_1.sc_dff_compact_5_.sky130_fd_sc_hd__dfrbp_1/D
+ VGND VPWR sky130_fd_sc_hd__diode_2
XANTENNA_mem_bottom_track_17.sc_dff_compact_0_.sky130_fd_sc_hd__dfrbp_1_CLK clkbuf_2_2_0_prog_clk/X
+ VGND VPWR sky130_fd_sc_hd__diode_2
XFILLER_23_53 VGND VPWR sky130_fd_sc_hd__fill_2
Xmux_right_track_8.mux_l2_in_0_.TGATE_1_.sky130_fd_sc_hd__ebufn_1 _27_/HI mux_right_track_8.mux_l2_in_0_.TGATE_1_.sky130_fd_sc_hd__ebufn_1/TE_B
+ mux_right_track_8.tap_buf4_0_.sky130_fd_sc_hd__inv_1/A VGND VPWR sky130_fd_sc_hd__ebufn_1
XANTENNA_mem_bottom_track_9.sc_dff_compact_4_.sky130_fd_sc_hd__dfrbp_1_CLK clkbuf_2_3_0_prog_clk/X
+ VGND VPWR sky130_fd_sc_hd__diode_2
XFILLER_0_57 VGND VPWR sky130_fd_sc_hd__decap_3
XFILLER_2_132 VGND VPWR sky130_fd_sc_hd__fill_1
XFILLER_2_154 VGND VPWR sky130_fd_sc_hd__decap_8
XFILLER_9_11 VGND VPWR sky130_fd_sc_hd__fill_2
X_49_ chany_bottom_in[4] chany_top_out[5] VGND VPWR sky130_fd_sc_hd__buf_2
Xmux_top_track_0.mux_l1_in_1_.TGATE_0_.sky130_fd_sc_hd__ebufn_1 mux_top_track_0.INVTX1_3_.sky130_fd_sc_hd__inv_1/Y
+ mux_top_track_0.mux_l1_in_1_.TGATE_0_.sky130_fd_sc_hd__ebufn_1/TE_B mux_top_track_0.mux_l2_in_0_.TGATE_1_.sky130_fd_sc_hd__ebufn_1/A
+ VGND VPWR sky130_fd_sc_hd__ebufn_1
XANTENNA_clkbuf_2_1_0_prog_clk_A clkbuf_2_1_0_prog_clk/A VGND VPWR sky130_fd_sc_hd__diode_2
Xmem_top_track_16.sc_dff_compact_0_.sky130_fd_sc_hd__dfrbp_1 mem_top_track_8.sc_dff_compact_5_.sky130_fd_sc_hd__dfrbp_1/Q
+ mem_top_track_16.sc_dff_compact_0_.sky130_fd_sc_hd__dfrbp_1/Q mem_top_track_16.sc_dff_compact_0_.sky130_fd_sc_hd__dfrbp_1/Q_N
+ _14_/Y clkbuf_2_2_0_prog_clk/X VGND VPWR sky130_fd_sc_hd__dfrbp_1
XANTENNA_mux_right_track_12.mux_l2_in_0_.TGATE_1_.sky130_fd_sc_hd__ebufn_1_A mux_right_track_12.mux_l2_in_0_.TGATE_1_.sky130_fd_sc_hd__ebufn_1/A
+ VGND VPWR sky130_fd_sc_hd__diode_2
XFILLER_18_53 VGND VPWR sky130_fd_sc_hd__decap_3
XFILLER_18_42 VGND VPWR sky130_fd_sc_hd__fill_2
XANTENNA_mem_top_track_16.sc_dff_compact_3_.sky130_fd_sc_hd__dfrbp_1_CLK clkbuf_2_1_0_prog_clk/X
+ VGND VPWR sky130_fd_sc_hd__diode_2
XFILLER_29_85 VGND VPWR sky130_fd_sc_hd__fill_2
XFILLER_20_32 VGND VPWR sky130_fd_sc_hd__fill_2
XANTENNA_mux_bottom_track_9.mux_l1_in_0_.TGATE_2_.sky130_fd_sc_hd__ebufn_1_A mux_bottom_track_9.INVTX1_2_.sky130_fd_sc_hd__inv_1/Y
+ VGND VPWR sky130_fd_sc_hd__diode_2
XFILLER_6_12 VGND VPWR sky130_fd_sc_hd__fill_2
XFILLER_6_23 VGND VPWR sky130_fd_sc_hd__decap_8
XFILLER_19_150 VGND VPWR sky130_fd_sc_hd__fill_2
XFILLER_13_3 VGND VPWR sky130_fd_sc_hd__decap_12
Xmem_bottom_track_17.sc_dff_compact_2_.sky130_fd_sc_hd__dfrbp_1 mem_bottom_track_17.sc_dff_compact_2_.sky130_fd_sc_hd__dfrbp_1/D
+ mem_bottom_track_17.sc_dff_compact_2_.sky130_fd_sc_hd__dfrbp_1/Q mem_bottom_track_17.sc_dff_compact_2_.sky130_fd_sc_hd__dfrbp_1/Q_N
+ _14_/Y clkbuf_2_3_0_prog_clk/X VGND VPWR sky130_fd_sc_hd__dfrbp_1
Xmux_bottom_track_9.mux_l1_in_2_.TGATE_2_.sky130_fd_sc_hd__ebufn_1 _20_/HI mux_bottom_track_9.mux_l1_in_2_.TGATE_2_.sky130_fd_sc_hd__ebufn_1/TE_B
+ mux_bottom_track_9.mux_l1_in_2_.TGATE_2_.sky130_fd_sc_hd__ebufn_1/Z VGND VPWR sky130_fd_sc_hd__ebufn_1
Xmux_right_track_10.mux_l1_in_0_.TGATE_0_.sky130_fd_sc_hd__ebufn_1 mux_right_track_10.INVTX1_0_.sky130_fd_sc_hd__inv_1/Y
+ mux_right_track_10.mux_l1_in_0_.TGATE_0_.sky130_fd_sc_hd__ebufn_1/TE_B mux_right_track_10.mux_l1_in_0_.TGATE_0_.sky130_fd_sc_hd__ebufn_1/Z
+ VGND VPWR sky130_fd_sc_hd__ebufn_1
XANTENNA_mux_right_track_12.mux_l1_in_1_.TGATE_1_.sky130_fd_sc_hd__ebufn_1_A _22_/HI
+ VGND VPWR sky130_fd_sc_hd__diode_2
Xmux_bottom_track_17.INVTX1_5_.sky130_fd_sc_hd__inv_1 bottom_left_grid_pin_3_ mux_bottom_track_17.INVTX1_5_.sky130_fd_sc_hd__inv_1/Y
+ VGND VPWR sky130_fd_sc_hd__inv_1
Xmux_top_track_8.mux_l2_in_0_.TGATE_1_.sky130_fd_sc_hd__ebufn_1 mux_top_track_8.mux_l1_in_1_.TGATE_2_.sky130_fd_sc_hd__ebufn_1/Z
+ mux_top_track_8.mux_l2_in_0_.TGATE_1_.sky130_fd_sc_hd__ebufn_1/TE_B mux_top_track_8.tap_buf4_0_.sky130_fd_sc_hd__inv_1/A
+ VGND VPWR sky130_fd_sc_hd__ebufn_1
XANTENNA_mux_bottom_track_17.mux_l1_in_0_.TGATE_1_.sky130_fd_sc_hd__ebufn_1_A mux_bottom_track_17.INVTX1_1_.sky130_fd_sc_hd__inv_1/Y
+ VGND VPWR sky130_fd_sc_hd__diode_2
Xmux_top_track_0.mux_l1_in_0_.TGATE_2_.sky130_fd_sc_hd__ebufn_1 mux_top_track_0.INVTX1_2_.sky130_fd_sc_hd__inv_1/Y
+ mux_top_track_0.mux_l1_in_0_.TGATE_2_.sky130_fd_sc_hd__ebufn_1/TE_B mux_top_track_0.mux_l1_in_0_.TGATE_0_.sky130_fd_sc_hd__ebufn_1/Z
+ VGND VPWR sky130_fd_sc_hd__ebufn_1
XFILLER_22_145 VGND VPWR sky130_fd_sc_hd__decap_8
Xmux_bottom_track_1.INVTX1_0_.sky130_fd_sc_hd__inv_1 chany_top_in[0] mux_bottom_track_1.INVTX1_0_.sky130_fd_sc_hd__inv_1/Y
+ VGND VPWR sky130_fd_sc_hd__inv_1
XFILLER_3_46 VGND VPWR sky130_fd_sc_hd__fill_2
XFILLER_3_57 VGND VPWR sky130_fd_sc_hd__fill_2
XFILLER_26_97 VGND VPWR sky130_fd_sc_hd__fill_2
XFILLER_13_145 VGND VPWR sky130_fd_sc_hd__fill_2
XFILLER_13_123 VGND VPWR sky130_fd_sc_hd__decap_8
Xmux_bottom_track_9.INVTX1_7_.sky130_fd_sc_hd__inv_1 bottom_left_grid_pin_13_ mux_bottom_track_9.INVTX1_7_.sky130_fd_sc_hd__inv_1/Y
+ VGND VPWR sky130_fd_sc_hd__inv_1
XANTENNA_mux_top_track_8.mux_l1_in_0_.TGATE_1_.sky130_fd_sc_hd__ebufn_1_A mux_top_track_8.INVTX1_1_.sky130_fd_sc_hd__inv_1/Y
+ VGND VPWR sky130_fd_sc_hd__diode_2
XANTENNA_mux_bottom_track_1.mux_l1_in_2_.TGATE_0_.sky130_fd_sc_hd__ebufn_1_A mux_bottom_track_1.INVTX1_6_.sky130_fd_sc_hd__inv_1/Y
+ VGND VPWR sky130_fd_sc_hd__diode_2
XFILLER_6_108 VGND VPWR sky130_fd_sc_hd__fill_1
XFILLER_12_88 VGND VPWR sky130_fd_sc_hd__fill_1
XANTENNA_mux_top_track_16.INVTX1_3_.sky130_fd_sc_hd__inv_1_A chanx_right_in[0] VGND
+ VPWR sky130_fd_sc_hd__diode_2
XFILLER_5_174 VGND VPWR sky130_fd_sc_hd__decap_8
XANTENNA_mem_bottom_track_17.sc_dff_compact_4_.sky130_fd_sc_hd__dfrbp_1_RESET_B _14_/Y
+ VGND VPWR sky130_fd_sc_hd__diode_2
XFILLER_0_36 VGND VPWR sky130_fd_sc_hd__decap_3
X_48_ chany_bottom_in[5] chany_top_out[6] VGND VPWR sky130_fd_sc_hd__buf_2
XFILLER_18_32 VGND VPWR sky130_fd_sc_hd__fill_2
XANTENNA_mux_bottom_track_1.INVTX1_6_.sky130_fd_sc_hd__inv_1_A bottom_left_grid_pin_5_
+ VGND VPWR sky130_fd_sc_hd__diode_2
Xmux_right_track_6.mux_l2_in_0_.TGATE_0_.sky130_fd_sc_hd__ebufn_1 mux_right_track_6.mux_l1_in_0_.TGATE_1_.sky130_fd_sc_hd__ebufn_1/Z
+ mux_right_track_6.mux_l2_in_0_.TGATE_0_.sky130_fd_sc_hd__ebufn_1/TE_B mux_right_track_6.tap_buf4_0_.sky130_fd_sc_hd__inv_1/A
+ VGND VPWR sky130_fd_sc_hd__ebufn_1
XFILLER_29_53 VGND VPWR sky130_fd_sc_hd__fill_2
XFILLER_6_35 VGND VPWR sky130_fd_sc_hd__fill_2
XFILLER_19_162 VGND VPWR sky130_fd_sc_hd__fill_2
XANTENNA_mux_top_track_8.INVTX1_2_.sky130_fd_sc_hd__inv_1_A top_left_grid_pin_15_
+ VGND VPWR sky130_fd_sc_hd__diode_2
XFILLER_16_154 VGND VPWR sky130_fd_sc_hd__decap_8
XFILLER_16_143 VGND VPWR sky130_fd_sc_hd__fill_2
Xmux_bottom_track_17.mux_l1_in_2_.TGATE_1_.sky130_fd_sc_hd__ebufn_1 mux_bottom_track_17.INVTX1_7_.sky130_fd_sc_hd__inv_1/Y
+ mux_bottom_track_17.mux_l1_in_2_.TGATE_1_.sky130_fd_sc_hd__ebufn_1/TE_B mux_bottom_track_17.mux_l2_in_0_.TGATE_2_.sky130_fd_sc_hd__ebufn_1/A
+ VGND VPWR sky130_fd_sc_hd__ebufn_1
XANTENNA_mux_right_track_8.mux_l1_in_0_.TGATE_1_.sky130_fd_sc_hd__ebufn_1_A mux_right_track_8.INVTX1_1_.sky130_fd_sc_hd__inv_1/Y
+ VGND VPWR sky130_fd_sc_hd__diode_2
XFILLER_22_157 VGND VPWR sky130_fd_sc_hd__decap_8
XANTENNA_mem_bottom_track_9.sc_dff_compact_0_.sky130_fd_sc_hd__dfrbp_1_RESET_B _14_/Y
+ VGND VPWR sky130_fd_sc_hd__diode_2
XFILLER_9_106 VGND VPWR sky130_fd_sc_hd__fill_2
XFILLER_26_32 VGND VPWR sky130_fd_sc_hd__decap_3
XFILLER_26_43 VGND VPWR sky130_fd_sc_hd__fill_2
XFILLER_26_76 VGND VPWR sky130_fd_sc_hd__decap_8
XFILLER_13_157 VGND VPWR sky130_fd_sc_hd__fill_2
Xmux_top_track_16.mux_l1_in_2_.TGATE_2_.sky130_fd_sc_hd__ebufn_1 _16_/HI mux_top_track_16.mux_l1_in_2_.TGATE_2_.sky130_fd_sc_hd__ebufn_1/TE_B
+ mux_top_track_16.mux_l1_in_2_.TGATE_2_.sky130_fd_sc_hd__ebufn_1/Z VGND VPWR sky130_fd_sc_hd__ebufn_1
Xmux_top_track_8.mux_l1_in_1_.TGATE_0_.sky130_fd_sc_hd__ebufn_1 mux_top_track_8.INVTX1_3_.sky130_fd_sc_hd__inv_1/Y
+ mux_top_track_8.mux_l1_in_1_.TGATE_0_.sky130_fd_sc_hd__ebufn_1/TE_B mux_top_track_8.mux_l1_in_1_.TGATE_2_.sky130_fd_sc_hd__ebufn_1/Z
+ VGND VPWR sky130_fd_sc_hd__ebufn_1
XFILLER_3_69 VGND VPWR sky130_fd_sc_hd__fill_1
Xmux_bottom_track_17.INVTX1_1_.sky130_fd_sc_hd__inv_1 chany_top_in[6] mux_bottom_track_17.INVTX1_1_.sky130_fd_sc_hd__inv_1/Y
+ VGND VPWR sky130_fd_sc_hd__inv_1
Xmux_right_track_2.INVTX1_1_.sky130_fd_sc_hd__inv_1 chany_top_in[3] mux_right_track_2.INVTX1_1_.sky130_fd_sc_hd__inv_1/Y
+ VGND VPWR sky130_fd_sc_hd__inv_1
Xmux_top_track_16.INVTX1_4_.sky130_fd_sc_hd__inv_1 chanx_right_in[3] mux_top_track_16.INVTX1_4_.sky130_fd_sc_hd__inv_1/Y
+ VGND VPWR sky130_fd_sc_hd__inv_1
XANTENNA_mem_top_track_8.sc_dff_compact_3_.sky130_fd_sc_hd__dfrbp_1_RESET_B _14_/Y
+ VGND VPWR sky130_fd_sc_hd__diode_2
XANTENNA_mux_top_track_0.mux_l1_in_2_.TGATE_2_.sky130_fd_sc_hd__ebufn_1_A _15_/HI
+ VGND VPWR sky130_fd_sc_hd__diode_2
XANTENNA_mux_right_track_6.tap_buf4_0_.sky130_fd_sc_hd__inv_1_A mux_right_track_6.tap_buf4_0_.sky130_fd_sc_hd__inv_1/A
+ VGND VPWR sky130_fd_sc_hd__diode_2
XFILLER_10_127 VGND VPWR sky130_fd_sc_hd__decap_8
XFILLER_12_23 VGND VPWR sky130_fd_sc_hd__decap_6
Xmem_right_track_8.sc_dff_compact_1_.sky130_fd_sc_hd__dfrbp_1 mem_right_track_8.sc_dff_compact_0_.sky130_fd_sc_hd__dfrbp_1/Q
+ mem_right_track_8.sc_dff_compact_1_.sky130_fd_sc_hd__dfrbp_1/Q mem_right_track_8.sc_dff_compact_1_.sky130_fd_sc_hd__dfrbp_1/Q_N
+ _14_/Y clkbuf_2_1_0_prog_clk/X VGND VPWR sky130_fd_sc_hd__dfrbp_1
XFILLER_5_142 VGND VPWR sky130_fd_sc_hd__fill_2
Xmux_bottom_track_9.INVTX1_3_.sky130_fd_sc_hd__inv_1 chanx_right_in[3] mux_bottom_track_9.INVTX1_3_.sky130_fd_sc_hd__inv_1/Y
+ VGND VPWR sky130_fd_sc_hd__inv_1
XFILLER_2_123 VGND VPWR sky130_fd_sc_hd__decap_3
X_47_ chany_bottom_in[6] chany_top_out[7] VGND VPWR sky130_fd_sc_hd__buf_2
XANTENNA_mux_right_track_12.mux_l1_in_0_.TGATE_1_.sky130_fd_sc_hd__ebufn_1_A mux_right_track_12.INVTX1_1_.sky130_fd_sc_hd__inv_1/Y
+ VGND VPWR sky130_fd_sc_hd__diode_2
XFILLER_9_46 VGND VPWR sky130_fd_sc_hd__fill_2
XFILLER_9_57 VGND VPWR sky130_fd_sc_hd__decap_4
XFILLER_9_68 VGND VPWR sky130_fd_sc_hd__fill_2
XFILLER_9_79 VGND VPWR sky130_fd_sc_hd__fill_2
XANTENNA_mux_bottom_track_1.mux_l2_in_0_.TGATE_0_.sky130_fd_sc_hd__ebufn_1_A mux_bottom_track_1.mux_l1_in_0_.TGATE_2_.sky130_fd_sc_hd__ebufn_1/Z
+ VGND VPWR sky130_fd_sc_hd__diode_2
XFILLER_18_88 VGND VPWR sky130_fd_sc_hd__fill_2
Xmux_top_track_8.mux_l1_in_0_.TGATE_2_.sky130_fd_sc_hd__ebufn_1 mux_top_track_8.INVTX1_2_.sky130_fd_sc_hd__inv_1/Y
+ mux_top_track_8.mux_l1_in_0_.TGATE_2_.sky130_fd_sc_hd__ebufn_1/TE_B mux_top_track_8.mux_l1_in_0_.TGATE_1_.sky130_fd_sc_hd__ebufn_1/Z
+ VGND VPWR sky130_fd_sc_hd__ebufn_1
XANTENNA_mem_top_track_0.sc_dff_compact_4_.sky130_fd_sc_hd__dfrbp_1_CLK clkbuf_2_2_0_prog_clk/X
+ VGND VPWR sky130_fd_sc_hd__diode_2
Xmem_top_track_0.sc_dff_compact_5_.sky130_fd_sc_hd__dfrbp_1 mem_top_track_0.sc_dff_compact_4_.sky130_fd_sc_hd__dfrbp_1/Q
+ mem_top_track_0.sc_dff_compact_5_.sky130_fd_sc_hd__dfrbp_1/Q mem_top_track_0.sc_dff_compact_5_.sky130_fd_sc_hd__dfrbp_1/Q_N
+ _14_/Y clkbuf_2_2_0_prog_clk/X VGND VPWR sky130_fd_sc_hd__dfrbp_1
XANTENNA_clkbuf_1_0_0_prog_clk_A clkbuf_0_prog_clk/X VGND VPWR sky130_fd_sc_hd__diode_2
XFILLER_1_91 VGND VPWR sky130_fd_sc_hd__decap_4
XFILLER_29_10 VGND VPWR sky130_fd_sc_hd__fill_2
XFILLER_20_23 VGND VPWR sky130_fd_sc_hd__fill_2
XFILLER_20_12 VGND VPWR sky130_fd_sc_hd__fill_2
XFILLER_6_47 VGND VPWR sky130_fd_sc_hd__fill_1
XFILLER_28_141 VGND VPWR sky130_fd_sc_hd__decap_3
XFILLER_28_152 VGND VPWR sky130_fd_sc_hd__fill_1
XFILLER_28_174 VGND VPWR sky130_fd_sc_hd__decap_8
XFILLER_29_65 VGND VPWR sky130_fd_sc_hd__fill_2
XANTENNA_mux_bottom_track_1.mux_l1_in_1_.TGATE_0_.sky130_fd_sc_hd__ebufn_1_A mux_bottom_track_1.INVTX1_3_.sky130_fd_sc_hd__inv_1/Y
+ VGND VPWR sky130_fd_sc_hd__diode_2
XFILLER_19_174 VGND VPWR sky130_fd_sc_hd__decap_8
XFILLER_25_177 VGND VPWR sky130_fd_sc_hd__decap_4
XFILLER_25_166 VGND VPWR sky130_fd_sc_hd__fill_2
XFILLER_16_100 VGND VPWR sky130_fd_sc_hd__fill_2
XFILLER_15_78 VGND VPWR sky130_fd_sc_hd__fill_2
XFILLER_15_67 VGND VPWR sky130_fd_sc_hd__fill_2
Xmux_top_track_0.INVTX1_4_.sky130_fd_sc_hd__inv_1 chanx_right_in[4] mux_top_track_0.INVTX1_4_.sky130_fd_sc_hd__inv_1/Y
+ VGND VPWR sky130_fd_sc_hd__inv_1
Xclkbuf_2_1_0_prog_clk clkbuf_2_1_0_prog_clk/A clkbuf_2_1_0_prog_clk/X VGND VPWR sky130_fd_sc_hd__clkbuf_1
XFILLER_22_136 VGND VPWR sky130_fd_sc_hd__fill_1
XANTENNA_mem_right_track_6.sc_dff_compact_0_.sky130_fd_sc_hd__dfrbp_1_CLK clkbuf_2_0_0_prog_clk/X
+ VGND VPWR sky130_fd_sc_hd__diode_2
XFILLER_9_118 VGND VPWR sky130_fd_sc_hd__fill_1
XFILLER_26_11 VGND VPWR sky130_fd_sc_hd__fill_2
XFILLER_26_88 VGND VPWR sky130_fd_sc_hd__fill_2
XFILLER_21_180 VGND VPWR sky130_fd_sc_hd__fill_2
XFILLER_13_114 VGND VPWR sky130_fd_sc_hd__fill_2
XFILLER_13_103 VGND VPWR sky130_fd_sc_hd__decap_3
Xmem_right_track_12.sc_dff_compact_0_.sky130_fd_sc_hd__dfrbp_1 mem_right_track_10.sc_dff_compact_1_.sky130_fd_sc_hd__dfrbp_1/Q
+ mem_right_track_12.sc_dff_compact_1_.sky130_fd_sc_hd__dfrbp_1/D mem_right_track_12.sc_dff_compact_0_.sky130_fd_sc_hd__dfrbp_1/Q_N
+ _14_/Y clkbuf_2_1_0_prog_clk/X VGND VPWR sky130_fd_sc_hd__dfrbp_1
XFILLER_3_26 VGND VPWR sky130_fd_sc_hd__fill_2
XFILLER_12_79 VGND VPWR sky130_fd_sc_hd__fill_2
XFILLER_5_154 VGND VPWR sky130_fd_sc_hd__fill_2
Xmux_right_track_6.mux_l1_in_0_.TGATE_1_.sky130_fd_sc_hd__ebufn_1 mux_right_track_6.INVTX1_1_.sky130_fd_sc_hd__inv_1/Y
+ mux_right_track_6.mux_l1_in_0_.TGATE_1_.sky130_fd_sc_hd__ebufn_1/TE_B mux_right_track_6.mux_l1_in_0_.TGATE_1_.sky130_fd_sc_hd__ebufn_1/Z
+ VGND VPWR sky130_fd_sc_hd__ebufn_1
XANTENNA_mux_bottom_track_9.INVTX1_3_.sky130_fd_sc_hd__inv_1_A chanx_right_in[3] VGND
+ VPWR sky130_fd_sc_hd__diode_2
XANTENNA_mem_top_track_0.sc_dff_compact_1_.sky130_fd_sc_hd__dfrbp_1_D mem_top_track_0.sc_dff_compact_1_.sky130_fd_sc_hd__dfrbp_1/D
+ VGND VPWR sky130_fd_sc_hd__diode_2
XFILLER_0_49 VGND VPWR sky130_fd_sc_hd__decap_8
XFILLER_2_179 VGND VPWR sky130_fd_sc_hd__decap_3
XFILLER_23_34 VGND VPWR sky130_fd_sc_hd__fill_2
X_46_ _46_/A chany_top_out[8] VGND VPWR sky130_fd_sc_hd__buf_2
Xmux_top_track_16.INVTX1_0_.sky130_fd_sc_hd__inv_1 top_left_grid_pin_5_ mux_top_track_16.INVTX1_0_.sky130_fd_sc_hd__inv_1/Y
+ VGND VPWR sky130_fd_sc_hd__inv_1
XANTENNA_mux_right_track_2.INVTX1_1_.sky130_fd_sc_hd__inv_1_A chany_top_in[3] VGND
+ VPWR sky130_fd_sc_hd__diode_2
XANTENNA_mem_bottom_track_1.sc_dff_compact_3_.sky130_fd_sc_hd__dfrbp_1_CLK clkbuf_2_3_0_prog_clk/X
+ VGND VPWR sky130_fd_sc_hd__diode_2
XANTENNA_mux_top_track_0.mux_l2_in_0_.TGATE_2_.sky130_fd_sc_hd__ebufn_1_A mux_top_track_0.mux_l1_in_2_.TGATE_2_.sky130_fd_sc_hd__ebufn_1/Z
+ VGND VPWR sky130_fd_sc_hd__diode_2
XFILLER_18_23 VGND VPWR sky130_fd_sc_hd__decap_6
XFILLER_18_12 VGND VPWR sky130_fd_sc_hd__decap_8
X_29_ _29_/A chanx_right_out[7] VGND VPWR sky130_fd_sc_hd__buf_2
XFILLER_1_70 VGND VPWR sky130_fd_sc_hd__fill_2
XFILLER_29_22 VGND VPWR sky130_fd_sc_hd__fill_2
XFILLER_20_79 VGND VPWR sky130_fd_sc_hd__decap_4
XANTENNA_mem_bottom_track_17.sc_dff_compact_0_.sky130_fd_sc_hd__dfrbp_1_D mem_bottom_track_9.sc_dff_compact_5_.sky130_fd_sc_hd__dfrbp_1/Q
+ VGND VPWR sky130_fd_sc_hd__diode_2
XANTENNA_mux_top_track_0.mux_l1_in_1_.TGATE_2_.sky130_fd_sc_hd__ebufn_1_A mux_top_track_0.INVTX1_5_.sky130_fd_sc_hd__inv_1/Y
+ VGND VPWR sky130_fd_sc_hd__diode_2
XFILLER_25_112 VGND VPWR sky130_fd_sc_hd__fill_2
XFILLER_15_57 VGND VPWR sky130_fd_sc_hd__decap_4
XFILLER_15_46 VGND VPWR sky130_fd_sc_hd__fill_2
XPHY_140 VGND VPWR sky130_fd_sc_hd__tapvpwrvgnd_1
XFILLER_11_3 VGND VPWR sky130_fd_sc_hd__decap_12
XFILLER_16_112 VGND VPWR sky130_fd_sc_hd__fill_2
XFILLER_7_80 VGND VPWR sky130_fd_sc_hd__decap_4
XFILLER_7_91 VGND VPWR sky130_fd_sc_hd__decap_4
XFILLER_26_23 VGND VPWR sky130_fd_sc_hd__decap_8
Xmux_top_track_0.mux_l1_in_2_.TGATE_1_.sky130_fd_sc_hd__ebufn_1 mux_top_track_0.INVTX1_7_.sky130_fd_sc_hd__inv_1/Y
+ mux_top_track_0.mux_l1_in_2_.TGATE_1_.sky130_fd_sc_hd__ebufn_1/TE_B mux_top_track_0.mux_l1_in_2_.TGATE_2_.sky130_fd_sc_hd__ebufn_1/Z
+ VGND VPWR sky130_fd_sc_hd__ebufn_1
XANTENNA_mem_top_track_0.sc_dff_compact_4_.sky130_fd_sc_hd__dfrbp_1_D mem_top_track_0.sc_dff_compact_3_.sky130_fd_sc_hd__dfrbp_1/Q
+ VGND VPWR sky130_fd_sc_hd__diode_2
XANTENNA_mux_right_track_6.mux_l2_in_0_.TGATE_1_.sky130_fd_sc_hd__ebufn_1_A mux_right_track_6.mux_l1_in_1_.TGATE_1_.sky130_fd_sc_hd__ebufn_1/Z
+ VGND VPWR sky130_fd_sc_hd__diode_2
Xmux_right_track_12.tap_buf4_0_.sky130_fd_sc_hd__inv_1 mux_right_track_12.tap_buf4_0_.sky130_fd_sc_hd__inv_1/A
+ _30_/A VGND VPWR sky130_fd_sc_hd__inv_1
Xmux_top_track_0.INVTX1_0_.sky130_fd_sc_hd__inv_1 top_left_grid_pin_1_ mux_top_track_0.INVTX1_0_.sky130_fd_sc_hd__inv_1/Y
+ VGND VPWR sky130_fd_sc_hd__inv_1
XFILLER_5_111 VGND VPWR sky130_fd_sc_hd__fill_2
Xmux_top_track_8.INVTX1_7_.sky130_fd_sc_hd__inv_1 chany_bottom_in[5] mux_top_track_8.INVTX1_7_.sky130_fd_sc_hd__inv_1/Y
+ VGND VPWR sky130_fd_sc_hd__inv_1
XANTENNA_mux_right_track_12.INVTX1_2_.sky130_fd_sc_hd__inv_1_A chany_bottom_in[7]
+ VGND VPWR sky130_fd_sc_hd__diode_2
XANTENNA_mem_top_track_8.sc_dff_compact_4_.sky130_fd_sc_hd__dfrbp_1_CLK clkbuf_2_1_0_prog_clk/X
+ VGND VPWR sky130_fd_sc_hd__diode_2
Xmem_bottom_track_1.sc_dff_compact_4_.sky130_fd_sc_hd__dfrbp_1 mem_bottom_track_1.sc_dff_compact_4_.sky130_fd_sc_hd__dfrbp_1/D
+ mem_bottom_track_1.sc_dff_compact_5_.sky130_fd_sc_hd__dfrbp_1/D mem_bottom_track_1.sc_dff_compact_4_.sky130_fd_sc_hd__dfrbp_1/Q_N
+ _14_/Y clkbuf_2_3_0_prog_clk/X VGND VPWR sky130_fd_sc_hd__dfrbp_1
XFILLER_2_103 VGND VPWR sky130_fd_sc_hd__decap_4
XFILLER_23_57 VGND VPWR sky130_fd_sc_hd__fill_2
Xmem_top_track_8.sc_dff_compact_1_.sky130_fd_sc_hd__dfrbp_1 mem_top_track_8.sc_dff_compact_0_.sky130_fd_sc_hd__dfrbp_1/Q
+ mem_top_track_8.sc_dff_compact_1_.sky130_fd_sc_hd__dfrbp_1/Q mem_top_track_8.sc_dff_compact_1_.sky130_fd_sc_hd__dfrbp_1/Q_N
+ _14_/Y clkbuf_2_0_0_prog_clk/X VGND VPWR sky130_fd_sc_hd__dfrbp_1
Xmux_right_track_10.mux_l1_in_1_.TGATE_1_.sky130_fd_sc_hd__ebufn_1 _21_/HI mux_right_track_10.mux_l1_in_1_.TGATE_1_.sky130_fd_sc_hd__ebufn_1/TE_B
+ mux_right_track_10.mux_l2_in_0_.TGATE_1_.sky130_fd_sc_hd__ebufn_1/A VGND VPWR sky130_fd_sc_hd__ebufn_1
XANTENNA_mux_right_track_6.mux_l1_in_1_.TGATE_1_.sky130_fd_sc_hd__ebufn_1_A _26_/HI
+ VGND VPWR sky130_fd_sc_hd__diode_2
XANTENNA_mux_bottom_track_1.mux_l1_in_0_.TGATE_0_.sky130_fd_sc_hd__ebufn_1_A mux_bottom_track_1.INVTX1_0_.sky130_fd_sc_hd__inv_1/Y
+ VGND VPWR sky130_fd_sc_hd__diode_2
XANTENNA_mem_right_track_14.sc_dff_compact_1_.sky130_fd_sc_hd__dfrbp_1_CLK clkbuf_2_3_0_prog_clk/X
+ VGND VPWR sky130_fd_sc_hd__diode_2
XFILLER_0_17 VGND VPWR sky130_fd_sc_hd__decap_12
XFILLER_9_15 VGND VPWR sky130_fd_sc_hd__fill_2
X_45_ _45_/A chany_bottom_out[0] VGND VPWR sky130_fd_sc_hd__buf_2
XANTENNA_mem_bottom_track_17.sc_dff_compact_3_.sky130_fd_sc_hd__dfrbp_1_D mem_bottom_track_17.sc_dff_compact_2_.sky130_fd_sc_hd__dfrbp_1/Q
+ VGND VPWR sky130_fd_sc_hd__diode_2
XFILLER_18_46 VGND VPWR sky130_fd_sc_hd__fill_2
Xmux_right_track_4.mux_l1_in_0_.TGATE_0_.sky130_fd_sc_hd__ebufn_1 mux_right_track_4.INVTX1_0_.sky130_fd_sc_hd__inv_1/Y
+ mux_right_track_4.mux_l1_in_0_.TGATE_0_.sky130_fd_sc_hd__ebufn_1/TE_B mux_right_track_4.mux_l1_in_0_.TGATE_1_.sky130_fd_sc_hd__ebufn_1/Z
+ VGND VPWR sky130_fd_sc_hd__ebufn_1
XANTENNA_mux_right_track_10.mux_l2_in_0_.TGATE_1_.sky130_fd_sc_hd__ebufn_1_A mux_right_track_10.mux_l2_in_0_.TGATE_1_.sky130_fd_sc_hd__ebufn_1/A
+ VGND VPWR sky130_fd_sc_hd__diode_2
X_28_ _28_/A chanx_right_out[8] VGND VPWR sky130_fd_sc_hd__buf_2
Xmem_right_track_4.sc_dff_compact_1_.sky130_fd_sc_hd__dfrbp_1 mem_right_track_4.sc_dff_compact_0_.sky130_fd_sc_hd__dfrbp_1/Q
+ mem_right_track_4.sc_dff_compact_1_.sky130_fd_sc_hd__dfrbp_1/Q mem_right_track_4.sc_dff_compact_1_.sky130_fd_sc_hd__dfrbp_1/Q_N
+ _14_/Y clkbuf_2_0_0_prog_clk/X VGND VPWR sky130_fd_sc_hd__dfrbp_1
Xmem_top_track_16.sc_dff_compact_3_.sky130_fd_sc_hd__dfrbp_1 mem_top_track_16.sc_dff_compact_2_.sky130_fd_sc_hd__dfrbp_1/Q
+ mem_top_track_16.sc_dff_compact_3_.sky130_fd_sc_hd__dfrbp_1/Q mem_top_track_16.sc_dff_compact_3_.sky130_fd_sc_hd__dfrbp_1/Q_N
+ _14_/Y clkbuf_2_1_0_prog_clk/X VGND VPWR sky130_fd_sc_hd__dfrbp_1
XFILLER_6_16 VGND VPWR sky130_fd_sc_hd__fill_2
XFILLER_25_146 VGND VPWR sky130_fd_sc_hd__decap_6
Xmem_bottom_track_17.sc_dff_compact_5_.sky130_fd_sc_hd__dfrbp_1 mem_bottom_track_17.sc_dff_compact_5_.sky130_fd_sc_hd__dfrbp_1/D
+ ccff_tail mem_bottom_track_17.sc_dff_compact_5_.sky130_fd_sc_hd__dfrbp_1/Q_N _14_/Y
+ clkbuf_2_3_0_prog_clk/X VGND VPWR sky130_fd_sc_hd__dfrbp_1
XPHY_130 VGND VPWR sky130_fd_sc_hd__tapvpwrvgnd_1
XPHY_141 VGND VPWR sky130_fd_sc_hd__tapvpwrvgnd_1
XANTENNA_mux_right_track_10.mux_l1_in_1_.TGATE_1_.sky130_fd_sc_hd__ebufn_1_A _21_/HI
+ VGND VPWR sky130_fd_sc_hd__diode_2
Xmux_bottom_track_1.mux_l2_in_0_.TGATE_1_.sky130_fd_sc_hd__ebufn_1 mux_bottom_track_1.mux_l1_in_1_.TGATE_1_.sky130_fd_sc_hd__ebufn_1/Z
+ mux_bottom_track_1.mux_l2_in_0_.TGATE_1_.sky130_fd_sc_hd__ebufn_1/TE_B mux_bottom_track_1.tap_buf4_0_.sky130_fd_sc_hd__inv_1/A
+ VGND VPWR sky130_fd_sc_hd__ebufn_1
XANTENNA_mem_bottom_track_17.sc_dff_compact_5_.sky130_fd_sc_hd__dfrbp_1_RESET_B _14_/Y
+ VGND VPWR sky130_fd_sc_hd__diode_2
XFILLER_22_116 VGND VPWR sky130_fd_sc_hd__fill_2
XANTENNA_mux_bottom_track_9.tap_buf4_0_.sky130_fd_sc_hd__inv_1_A mux_bottom_track_9.tap_buf4_0_.sky130_fd_sc_hd__inv_1/A
+ VGND VPWR sky130_fd_sc_hd__diode_2
XANTENNA__31__A _31_/A VGND VPWR sky130_fd_sc_hd__diode_2
XANTENNA_mem_bottom_track_9.sc_dff_compact_3_.sky130_fd_sc_hd__dfrbp_1_CLK clkbuf_2_3_0_prog_clk/X
+ VGND VPWR sky130_fd_sc_hd__diode_2
XFILLER_16_90 VGND VPWR sky130_fd_sc_hd__fill_2
XFILLER_12_15 VGND VPWR sky130_fd_sc_hd__decap_4
XANTENNA_mem_top_track_0.sc_dff_compact_0_.sky130_fd_sc_hd__dfrbp_1_RESET_B _14_/Y
+ VGND VPWR sky130_fd_sc_hd__diode_2
XFILLER_5_123 VGND VPWR sky130_fd_sc_hd__fill_2
XANTENNA_mux_top_track_16.INVTX1_6_.sky130_fd_sc_hd__inv_1_A chany_bottom_in[2] VGND
+ VPWR sky130_fd_sc_hd__diode_2
XANTENNA_mem_top_track_16.sc_dff_compact_2_.sky130_fd_sc_hd__dfrbp_1_CLK clkbuf_2_0_0_prog_clk/X
+ VGND VPWR sky130_fd_sc_hd__diode_2
XFILLER_4_93 VGND VPWR sky130_fd_sc_hd__decap_4
XANTENNA_mux_bottom_track_17.INVTX1_2_.sky130_fd_sc_hd__inv_1_A chanx_right_in[2]
+ VGND VPWR sky130_fd_sc_hd__diode_2
XANTENNA_mux_right_track_4.tap_buf4_0_.sky130_fd_sc_hd__inv_1_A mux_right_track_4.tap_buf4_0_.sky130_fd_sc_hd__inv_1/A
+ VGND VPWR sky130_fd_sc_hd__diode_2
XFILLER_0_29 VGND VPWR sky130_fd_sc_hd__fill_2
XFILLER_2_115 VGND VPWR sky130_fd_sc_hd__decap_8
X_44_ chany_top_in[0] chany_bottom_out[1] VGND VPWR sky130_fd_sc_hd__buf_2
XANTENNA_mux_top_track_0.mux_l1_in_0_.TGATE_2_.sky130_fd_sc_hd__ebufn_1_A mux_top_track_0.INVTX1_2_.sky130_fd_sc_hd__inv_1/Y
+ VGND VPWR sky130_fd_sc_hd__diode_2
Xmux_top_track_8.INVTX1_3_.sky130_fd_sc_hd__inv_1 chanx_right_in[2] mux_top_track_8.INVTX1_3_.sky130_fd_sc_hd__inv_1/Y
+ VGND VPWR sky130_fd_sc_hd__inv_1
XFILLER_1_3 VGND VPWR sky130_fd_sc_hd__fill_2
XFILLER_18_58 VGND VPWR sky130_fd_sc_hd__decap_3
XFILLER_18_36 VGND VPWR sky130_fd_sc_hd__decap_3
X_27_ _27_/HI _27_/LO VGND VPWR sky130_fd_sc_hd__conb_1
Xmux_top_track_8.mux_l1_in_2_.TGATE_1_.sky130_fd_sc_hd__ebufn_1 mux_top_track_8.INVTX1_7_.sky130_fd_sc_hd__inv_1/Y
+ mux_top_track_8.mux_l1_in_2_.TGATE_1_.sky130_fd_sc_hd__ebufn_1/TE_B mux_top_track_8.mux_l1_in_2_.TGATE_0_.sky130_fd_sc_hd__ebufn_1/Z
+ VGND VPWR sky130_fd_sc_hd__ebufn_1
XANTENNA_mem_bottom_track_9.sc_dff_compact_1_.sky130_fd_sc_hd__dfrbp_1_RESET_B _14_/Y
+ VGND VPWR sky130_fd_sc_hd__diode_2
XFILLER_28_111 VGND VPWR sky130_fd_sc_hd__fill_1
XFILLER_29_57 VGND VPWR sky130_fd_sc_hd__fill_2
XFILLER_20_48 VGND VPWR sky130_fd_sc_hd__fill_2
XFILLER_20_37 VGND VPWR sky130_fd_sc_hd__fill_2
Xmux_right_track_6.tap_buf4_0_.sky130_fd_sc_hd__inv_1 mux_right_track_6.tap_buf4_0_.sky130_fd_sc_hd__inv_1/A
+ _33_/A VGND VPWR sky130_fd_sc_hd__inv_1
XANTENNA__34__A _34_/A VGND VPWR sky130_fd_sc_hd__diode_2
XFILLER_6_39 VGND VPWR sky130_fd_sc_hd__decap_8
XFILLER_19_166 VGND VPWR sky130_fd_sc_hd__decap_4
XANTENNA_mem_top_track_8.sc_dff_compact_4_.sky130_fd_sc_hd__dfrbp_1_RESET_B _14_/Y
+ VGND VPWR sky130_fd_sc_hd__diode_2
XFILLER_15_26 VGND VPWR sky130_fd_sc_hd__decap_8
XPHY_120 VGND VPWR sky130_fd_sc_hd__tapvpwrvgnd_1
XPHY_131 VGND VPWR sky130_fd_sc_hd__tapvpwrvgnd_1
XPHY_142 VGND VPWR sky130_fd_sc_hd__tapvpwrvgnd_1
XANTENNA_mem_right_track_14.sc_dff_compact_0_.sky130_fd_sc_hd__dfrbp_1_RESET_B _14_/Y
+ VGND VPWR sky130_fd_sc_hd__diode_2
XANTENNA__29__A _29_/A VGND VPWR sky130_fd_sc_hd__diode_2
XFILLER_21_91 VGND VPWR sky130_fd_sc_hd__fill_2
XFILLER_16_147 VGND VPWR sky130_fd_sc_hd__decap_6
XPHY_0 VGND VPWR sky130_fd_sc_hd__decap_3
XANTENNA_mux_top_track_8.INVTX1_5_.sky130_fd_sc_hd__inv_1_A chanx_right_in[8] VGND
+ VPWR sky130_fd_sc_hd__diode_2
XFILLER_22_128 VGND VPWR sky130_fd_sc_hd__fill_2
Xmem_bottom_track_9.sc_dff_compact_0_.sky130_fd_sc_hd__dfrbp_1 mem_bottom_track_9.sc_dff_compact_0_.sky130_fd_sc_hd__dfrbp_1/D
+ mem_bottom_track_9.sc_dff_compact_0_.sky130_fd_sc_hd__dfrbp_1/Q mem_bottom_track_9.sc_dff_compact_0_.sky130_fd_sc_hd__dfrbp_1/Q_N
+ _14_/Y clkbuf_2_3_0_prog_clk/X VGND VPWR sky130_fd_sc_hd__dfrbp_1
XANTENNA_mux_right_track_6.mux_l1_in_0_.TGATE_1_.sky130_fd_sc_hd__ebufn_1_A mux_right_track_6.INVTX1_1_.sky130_fd_sc_hd__inv_1/Y
+ VGND VPWR sky130_fd_sc_hd__diode_2