* NGSPICE file created from cbx_1__0_.ext - technology: sky130A

* Black-box entry subcircuit for sky130_fd_sc_hd__dfrbp_1 abstract view
.subckt sky130_fd_sc_hd__dfrbp_1 D Q Q_N RESET_B CLK VGND VPWR
.ends

* Black-box entry subcircuit for sky130_fd_sc_hd__fill_2 abstract view
.subckt sky130_fd_sc_hd__fill_2 VGND VPWR
.ends

* Black-box entry subcircuit for sky130_fd_sc_hd__decap_8 abstract view
.subckt sky130_fd_sc_hd__decap_8 VGND VPWR
.ends

* Black-box entry subcircuit for sky130_fd_sc_hd__decap_4 abstract view
.subckt sky130_fd_sc_hd__decap_4 VGND VPWR
.ends

* Black-box entry subcircuit for sky130_fd_sc_hd__decap_12 abstract view
.subckt sky130_fd_sc_hd__decap_12 VGND VPWR
.ends

* Black-box entry subcircuit for sky130_fd_sc_hd__decap_3 abstract view
.subckt sky130_fd_sc_hd__decap_3 VGND VPWR
.ends

* Black-box entry subcircuit for sky130_fd_sc_hd__diode_2 abstract view
.subckt sky130_fd_sc_hd__diode_2 DIODE VGND VPWR
.ends

* Black-box entry subcircuit for sky130_fd_sc_hd__clkbuf_1 abstract view
.subckt sky130_fd_sc_hd__clkbuf_1 A X VGND VPWR
.ends

* Black-box entry subcircuit for sky130_fd_sc_hd__fill_1 abstract view
.subckt sky130_fd_sc_hd__fill_1 VGND VPWR
.ends

* Black-box entry subcircuit for sky130_fd_sc_hd__decap_6 abstract view
.subckt sky130_fd_sc_hd__decap_6 VGND VPWR
.ends

* Black-box entry subcircuit for sky130_fd_sc_hd__tapvpwrvgnd_1 abstract view
.subckt sky130_fd_sc_hd__tapvpwrvgnd_1 VGND VPWR
.ends

* Black-box entry subcircuit for sky130_fd_sc_hd__buf_2 abstract view
.subckt sky130_fd_sc_hd__buf_2 A X VGND VPWR
.ends

* Black-box entry subcircuit for sky130_fd_sc_hd__conb_1 abstract view
.subckt sky130_fd_sc_hd__conb_1 HI LO VGND VPWR
.ends

* Black-box entry subcircuit for sky130_fd_sc_hd__clkbuf_16 abstract view
.subckt sky130_fd_sc_hd__clkbuf_16 A X VGND VPWR
.ends

.subckt cbx_1__0_ bottom_grid_pin_0_ bottom_grid_pin_10_ bottom_grid_pin_12_ bottom_grid_pin_14_
+ bottom_grid_pin_2_ bottom_grid_pin_4_ bottom_grid_pin_6_ bottom_grid_pin_8_ ccff_head
+ ccff_tail chanx_left_in[0] chanx_left_in[1] chanx_left_in[2] chanx_left_in[3] chanx_left_in[4]
+ chanx_left_in[5] chanx_left_in[6] chanx_left_in[7] chanx_left_in[8] chanx_left_out[0]
+ chanx_left_out[1] chanx_left_out[2] chanx_left_out[3] chanx_left_out[4] chanx_left_out[5]
+ chanx_left_out[6] chanx_left_out[7] chanx_left_out[8] chanx_right_in[0] chanx_right_in[1]
+ chanx_right_in[2] chanx_right_in[3] chanx_right_in[4] chanx_right_in[5] chanx_right_in[6]
+ chanx_right_in[7] chanx_right_in[8] chanx_right_out[0] chanx_right_out[1] chanx_right_out[2]
+ chanx_right_out[3] chanx_right_out[4] chanx_right_out[5] chanx_right_out[6] chanx_right_out[7]
+ chanx_right_out[8] pReset prog_clk top_grid_pin_14_ top_grid_pin_2_ top_grid_pin_6_
+ VPWR VGND
Xmem_bottom_ipin_2.sc_dff_compact_5_.sky130_fd_sc_hd__dfrbp_1 mem_bottom_ipin_2.sc_dff_compact_4_.sky130_fd_sc_hd__dfrbp_1/Q
+ mem_top_ipin_0.sc_dff_compact_0_.sky130_fd_sc_hd__dfrbp_1/D mem_bottom_ipin_2.sc_dff_compact_5_.sky130_fd_sc_hd__dfrbp_1/Q_N
+ pReset clkbuf_3_0_0_prog_clk/X VGND VPWR sky130_fd_sc_hd__dfrbp_1
Xmem_top_ipin_0.sc_dff_compact_4_.sky130_fd_sc_hd__dfrbp_1 mem_top_ipin_0.sc_dff_compact_3_.sky130_fd_sc_hd__dfrbp_1/Q
+ mem_top_ipin_0.sc_dff_compact_5_.sky130_fd_sc_hd__dfrbp_1/D mem_top_ipin_0.sc_dff_compact_4_.sky130_fd_sc_hd__dfrbp_1/Q_N
+ pReset clkbuf_3_1_0_prog_clk/X VGND VPWR sky130_fd_sc_hd__dfrbp_1
XFILLER_3_89 VGND VPWR sky130_fd_sc_hd__fill_2
XFILLER_18_203 VGND VPWR sky130_fd_sc_hd__decap_8
XFILLER_12_32 VGND VPWR sky130_fd_sc_hd__decap_4
XFILLER_12_21 VGND VPWR sky130_fd_sc_hd__decap_8
XFILLER_10_136 VGND VPWR sky130_fd_sc_hd__decap_12
XFILLER_6_118 VGND VPWR sky130_fd_sc_hd__decap_3
XFILLER_5_184 VGND VPWR sky130_fd_sc_hd__fill_2
Xmem_bottom_ipin_0.sc_dff_compact_0_.sky130_fd_sc_hd__dfrbp_1 ccff_head mem_bottom_ipin_0.sc_dff_compact_1_.sky130_fd_sc_hd__dfrbp_1/D
+ mem_bottom_ipin_0.sc_dff_compact_0_.sky130_fd_sc_hd__dfrbp_1/Q_N pReset clkbuf_3_2_0_prog_clk/X
+ VGND VPWR sky130_fd_sc_hd__dfrbp_1
XFILLER_14_272 VGND VPWR sky130_fd_sc_hd__decap_3
XFILLER_9_66 VGND VPWR sky130_fd_sc_hd__fill_2
XFILLER_9_55 VGND VPWR sky130_fd_sc_hd__fill_2
XFILLER_2_132 VGND VPWR sky130_fd_sc_hd__decap_12
XFILLER_2_154 VGND VPWR sky130_fd_sc_hd__decap_12
XFILLER_2_198 VGND VPWR sky130_fd_sc_hd__decap_12
XANTENNA_clkbuf_2_1_0_prog_clk_A clkbuf_2_1_0_prog_clk/A VGND VPWR sky130_fd_sc_hd__diode_2
Xclkbuf_3_4_0_prog_clk clkbuf_3_5_0_prog_clk/A clkbuf_3_4_0_prog_clk/X VGND VPWR sky130_fd_sc_hd__clkbuf_1
XFILLER_11_242 VGND VPWR sky130_fd_sc_hd__fill_2
XANTENNA_mem_top_ipin_0.sc_dff_compact_2_.sky130_fd_sc_hd__dfrbp_1_D mem_top_ipin_0.sc_dff_compact_1_.sky130_fd_sc_hd__dfrbp_1/Q
+ VGND VPWR sky130_fd_sc_hd__diode_2
XFILLER_20_32 VGND VPWR sky130_fd_sc_hd__fill_2
XFILLER_16_312 VGND VPWR sky130_fd_sc_hd__decap_12
XFILLER_4_227 VGND VPWR sky130_fd_sc_hd__decap_8
XFILLER_19_150 VGND VPWR sky130_fd_sc_hd__fill_2
XFILLER_13_3 VGND VPWR sky130_fd_sc_hd__decap_12
XANTENNA_mem_top_ipin_0.sc_dff_compact_5_.sky130_fd_sc_hd__dfrbp_1_CLK clkbuf_3_1_0_prog_clk/X
+ VGND VPWR sky130_fd_sc_hd__diode_2
XFILLER_6_56 VGND VPWR sky130_fd_sc_hd__decap_12
XFILLER_13_167 VGND VPWR sky130_fd_sc_hd__fill_2
XFILLER_13_123 VGND VPWR sky130_fd_sc_hd__fill_2
XFILLER_13_101 VGND VPWR sky130_fd_sc_hd__fill_2
XFILLER_9_149 VGND VPWR sky130_fd_sc_hd__decap_12
XFILLER_9_116 VGND VPWR sky130_fd_sc_hd__fill_2
XANTENNA_mem_top_ipin_1.sc_dff_compact_0_.sky130_fd_sc_hd__dfrbp_1_D mem_top_ipin_0.sc_dff_compact_5_.sky130_fd_sc_hd__dfrbp_1/Q
+ VGND VPWR sky130_fd_sc_hd__diode_2
XFILLER_18_215 VGND VPWR sky130_fd_sc_hd__decap_12
XFILLER_12_77 VGND VPWR sky130_fd_sc_hd__fill_1
XANTENNA_mem_top_ipin_0.sc_dff_compact_5_.sky130_fd_sc_hd__dfrbp_1_D mem_top_ipin_0.sc_dff_compact_5_.sky130_fd_sc_hd__dfrbp_1/D
+ VGND VPWR sky130_fd_sc_hd__diode_2
XFILLER_15_229 VGND VPWR sky130_fd_sc_hd__fill_2
XANTENNA_mem_bottom_ipin_1.sc_dff_compact_1_.sky130_fd_sc_hd__dfrbp_1_RESET_B pReset
+ VGND VPWR sky130_fd_sc_hd__diode_2
XFILLER_9_34 VGND VPWR sky130_fd_sc_hd__decap_12
XFILLER_2_144 VGND VPWR sky130_fd_sc_hd__decap_8
XFILLER_2_166 VGND VPWR sky130_fd_sc_hd__decap_12
XFILLER_20_276 VGND VPWR sky130_fd_sc_hd__fill_2
XANTENNA_mem_bottom_ipin_1.sc_dff_compact_0_.sky130_fd_sc_hd__dfrbp_1_CLK clkbuf_3_2_0_prog_clk/X
+ VGND VPWR sky130_fd_sc_hd__diode_2
XFILLER_18_32 VGND VPWR sky130_fd_sc_hd__decap_12
XANTENNA_mem_bottom_ipin_2.sc_dff_compact_1_.sky130_fd_sc_hd__dfrbp_1_CLK clkbuf_3_2_0_prog_clk/X
+ VGND VPWR sky130_fd_sc_hd__diode_2
XFILLER_11_232 VGND VPWR sky130_fd_sc_hd__decap_4
XFILLER_7_236 VGND VPWR sky130_fd_sc_hd__decap_4
XFILLER_7_214 VGND VPWR sky130_fd_sc_hd__fill_2
XFILLER_20_77 VGND VPWR sky130_fd_sc_hd__fill_2
XFILLER_4_206 VGND VPWR sky130_fd_sc_hd__decap_3
XFILLER_19_184 VGND VPWR sky130_fd_sc_hd__fill_2
XFILLER_16_324 VGND VPWR sky130_fd_sc_hd__decap_6
XFILLER_6_68 VGND VPWR sky130_fd_sc_hd__decap_8
XFILLER_6_79 VGND VPWR sky130_fd_sc_hd__fill_2
XFILLER_15_66 VGND VPWR sky130_fd_sc_hd__decap_6
XANTENNA_mem_top_ipin_1.sc_dff_compact_3_.sky130_fd_sc_hd__dfrbp_1_D mem_top_ipin_1.sc_dff_compact_2_.sky130_fd_sc_hd__dfrbp_1/Q
+ VGND VPWR sky130_fd_sc_hd__diode_2
XPHY_160 VGND VPWR sky130_fd_sc_hd__tapvpwrvgnd_1
XFILLER_16_154 VGND VPWR sky130_fd_sc_hd__decap_12
XFILLER_15_99 VGND VPWR sky130_fd_sc_hd__fill_2
Xmem_top_ipin_5.sc_dff_compact_1_.sky130_fd_sc_hd__dfrbp_1 mem_top_ipin_5.sc_dff_compact_0_.sky130_fd_sc_hd__dfrbp_1/Q
+ mem_top_ipin_5.sc_dff_compact_2_.sky130_fd_sc_hd__dfrbp_1/D mem_top_ipin_5.sc_dff_compact_1_.sky130_fd_sc_hd__dfrbp_1/Q_N
+ pReset clkbuf_3_5_0_prog_clk/X VGND VPWR sky130_fd_sc_hd__dfrbp_1
XFILLER_5_301 VGND VPWR sky130_fd_sc_hd__decap_4
Xmem_top_ipin_2.sc_dff_compact_2_.sky130_fd_sc_hd__dfrbp_1 mem_top_ipin_2.sc_dff_compact_2_.sky130_fd_sc_hd__dfrbp_1/D
+ mem_top_ipin_2.sc_dff_compact_3_.sky130_fd_sc_hd__dfrbp_1/D mem_top_ipin_2.sc_dff_compact_2_.sky130_fd_sc_hd__dfrbp_1/Q_N
+ pReset clkbuf_3_3_0_prog_clk/X VGND VPWR sky130_fd_sc_hd__dfrbp_1
XFILLER_10_105 VGND VPWR sky130_fd_sc_hd__decap_12
XFILLER_18_227 VGND VPWR sky130_fd_sc_hd__decap_12
XANTENNA_mem_top_ipin_3.sc_dff_compact_0_.sky130_fd_sc_hd__dfrbp_1_CLK clkbuf_3_6_0_prog_clk/X
+ VGND VPWR sky130_fd_sc_hd__diode_2
XFILLER_5_120 VGND VPWR sky130_fd_sc_hd__fill_2
XANTENNA_mem_top_ipin_4.sc_dff_compact_1_.sky130_fd_sc_hd__dfrbp_1_CLK clkbuf_3_4_0_prog_clk/X
+ VGND VPWR sky130_fd_sc_hd__diode_2
XFILLER_5_175 VGND VPWR sky130_fd_sc_hd__fill_2
XANTENNA_mem_top_ipin_2.sc_dff_compact_1_.sky130_fd_sc_hd__dfrbp_1_D mem_top_ipin_2.sc_dff_compact_0_.sky130_fd_sc_hd__dfrbp_1/Q
+ VGND VPWR sky130_fd_sc_hd__diode_2
XANTENNA_mem_top_ipin_5.sc_dff_compact_2_.sky130_fd_sc_hd__dfrbp_1_CLK clkbuf_3_5_0_prog_clk/X
+ VGND VPWR sky130_fd_sc_hd__diode_2
XFILLER_4_90 VGND VPWR sky130_fd_sc_hd__fill_2
XANTENNA_mem_top_ipin_7.sc_dff_compact_4_.sky130_fd_sc_hd__dfrbp_1_CLK clkbuf_3_7_0_prog_clk/X
+ VGND VPWR sky130_fd_sc_hd__diode_2
XFILLER_14_252 VGND VPWR sky130_fd_sc_hd__decap_12
XANTENNA_mem_top_ipin_6.sc_dff_compact_3_.sky130_fd_sc_hd__dfrbp_1_CLK clkbuf_3_7_0_prog_clk/X
+ VGND VPWR sky130_fd_sc_hd__diode_2
XFILLER_0_15 VGND VPWR sky130_fd_sc_hd__decap_12
XFILLER_2_178 VGND VPWR sky130_fd_sc_hd__decap_12
XFILLER_3_3 VGND VPWR sky130_fd_sc_hd__decap_12
XFILLER_9_46 VGND VPWR sky130_fd_sc_hd__decap_6
XFILLER_18_55 VGND VPWR sky130_fd_sc_hd__fill_2
XFILLER_18_44 VGND VPWR sky130_fd_sc_hd__decap_8
XFILLER_20_89 VGND VPWR sky130_fd_sc_hd__decap_3
XANTENNA_clkbuf_1_0_0_prog_clk_A clkbuf_0_prog_clk/X VGND VPWR sky130_fd_sc_hd__diode_2
XANTENNA_mem_top_ipin_7.sc_dff_compact_0_.sky130_fd_sc_hd__dfrbp_1_RESET_B pReset
+ VGND VPWR sky130_fd_sc_hd__diode_2
XFILLER_3_240 VGND VPWR sky130_fd_sc_hd__decap_4
XFILLER_16_166 VGND VPWR sky130_fd_sc_hd__decap_4
XFILLER_13_306 VGND VPWR sky130_fd_sc_hd__decap_12
XFILLER_0_232 VGND VPWR sky130_fd_sc_hd__decap_12
XPHY_161 VGND VPWR sky130_fd_sc_hd__tapvpwrvgnd_1
XPHY_150 VGND VPWR sky130_fd_sc_hd__tapvpwrvgnd_1
Xclkbuf_2_1_0_prog_clk clkbuf_2_1_0_prog_clk/A clkbuf_3_3_0_prog_clk/A VGND VPWR sky130_fd_sc_hd__clkbuf_1
XFILLER_21_180 VGND VPWR sky130_fd_sc_hd__decap_6
XANTENNA_mem_top_ipin_2.sc_dff_compact_4_.sky130_fd_sc_hd__dfrbp_1_D mem_top_ipin_2.sc_dff_compact_3_.sky130_fd_sc_hd__dfrbp_1/Q
+ VGND VPWR sky130_fd_sc_hd__diode_2
XFILLER_9_107 VGND VPWR sky130_fd_sc_hd__decap_6
XFILLER_8_195 VGND VPWR sky130_fd_sc_hd__decap_12
XFILLER_3_15 VGND VPWR sky130_fd_sc_hd__decap_12
XFILLER_3_59 VGND VPWR sky130_fd_sc_hd__fill_2
XANTENNA_mem_bottom_ipin_0.sc_dff_compact_1_.sky130_fd_sc_hd__dfrbp_1_RESET_B pReset
+ VGND VPWR sky130_fd_sc_hd__diode_2
XFILLER_10_128 VGND VPWR sky130_fd_sc_hd__fill_2
XFILLER_10_117 VGND VPWR sky130_fd_sc_hd__fill_1
XFILLER_18_239 VGND VPWR sky130_fd_sc_hd__decap_4
XANTENNA_mem_bottom_ipin_2.sc_dff_compact_2_.sky130_fd_sc_hd__dfrbp_1_RESET_B pReset
+ VGND VPWR sky130_fd_sc_hd__diode_2
XFILLER_4_80 VGND VPWR sky130_fd_sc_hd__decap_4
XANTENNA__12__A chanx_right_in[7] VGND VPWR sky130_fd_sc_hd__diode_2
XFILLER_0_27 VGND VPWR sky130_fd_sc_hd__decap_4
XFILLER_14_264 VGND VPWR sky130_fd_sc_hd__decap_8
XFILLER_14_220 VGND VPWR sky130_fd_sc_hd__decap_4
XANTENNA_mem_top_ipin_3.sc_dff_compact_2_.sky130_fd_sc_hd__dfrbp_1_D mem_top_ipin_3.sc_dff_compact_1_.sky130_fd_sc_hd__dfrbp_1/Q
+ VGND VPWR sky130_fd_sc_hd__diode_2
XFILLER_19_312 VGND VPWR sky130_fd_sc_hd__fill_2
XFILLER_11_245 VGND VPWR sky130_fd_sc_hd__fill_2
XFILLER_1_81 VGND VPWR sky130_fd_sc_hd__decap_12
XFILLER_1_70 VGND VPWR sky130_fd_sc_hd__decap_3
Xclkbuf_3_3_0_prog_clk clkbuf_3_3_0_prog_clk/A clkbuf_3_3_0_prog_clk/X VGND VPWR sky130_fd_sc_hd__clkbuf_1
XFILLER_6_15 VGND VPWR sky130_fd_sc_hd__decap_12
XFILLER_19_175 VGND VPWR sky130_fd_sc_hd__fill_2
XFILLER_15_57 VGND VPWR sky130_fd_sc_hd__decap_4
XFILLER_13_318 VGND VPWR sky130_fd_sc_hd__decap_12
Xmem_top_ipin_6.sc_dff_compact_5_.sky130_fd_sc_hd__dfrbp_1 mem_top_ipin_6.sc_dff_compact_4_.sky130_fd_sc_hd__dfrbp_1/Q
+ mem_top_ipin_7.sc_dff_compact_0_.sky130_fd_sc_hd__dfrbp_1/D mem_top_ipin_6.sc_dff_compact_5_.sky130_fd_sc_hd__dfrbp_1/Q_N
+ pReset clkbuf_3_7_0_prog_clk/X VGND VPWR sky130_fd_sc_hd__dfrbp_1
XFILLER_0_244 VGND VPWR sky130_fd_sc_hd__decap_4
XANTENNA__20__A chanx_left_in[8] VGND VPWR sky130_fd_sc_hd__diode_2
XPHY_162 VGND VPWR sky130_fd_sc_hd__tapvpwrvgnd_1
XPHY_151 VGND VPWR sky130_fd_sc_hd__tapvpwrvgnd_1
XPHY_140 VGND VPWR sky130_fd_sc_hd__tapvpwrvgnd_1
XFILLER_16_134 VGND VPWR sky130_fd_sc_hd__fill_2
XFILLER_11_3 VGND VPWR sky130_fd_sc_hd__decap_12
XFILLER_8_300 VGND VPWR sky130_fd_sc_hd__decap_12
XANTENNA_mem_top_ipin_4.sc_dff_compact_0_.sky130_fd_sc_hd__dfrbp_1_D mem_top_ipin_3.sc_dff_compact_5_.sky130_fd_sc_hd__dfrbp_1/Q
+ VGND VPWR sky130_fd_sc_hd__diode_2
XANTENNA__15__A chanx_right_in[4] VGND VPWR sky130_fd_sc_hd__diode_2
XFILLER_3_27 VGND VPWR sky130_fd_sc_hd__decap_12
XANTENNA_mem_top_ipin_3.sc_dff_compact_5_.sky130_fd_sc_hd__dfrbp_1_D mem_top_ipin_3.sc_dff_compact_4_.sky130_fd_sc_hd__dfrbp_1/Q
+ VGND VPWR sky130_fd_sc_hd__diode_2
Xmem_top_ipin_4.sc_dff_compact_0_.sky130_fd_sc_hd__dfrbp_1 mem_top_ipin_3.sc_dff_compact_5_.sky130_fd_sc_hd__dfrbp_1/Q
+ mem_top_ipin_4.sc_dff_compact_0_.sky130_fd_sc_hd__dfrbp_1/Q mem_top_ipin_4.sc_dff_compact_0_.sky130_fd_sc_hd__dfrbp_1/Q_N
+ pReset clkbuf_3_4_0_prog_clk/X VGND VPWR sky130_fd_sc_hd__dfrbp_1
Xmem_top_ipin_1.sc_dff_compact_1_.sky130_fd_sc_hd__dfrbp_1 mem_top_ipin_1.sc_dff_compact_1_.sky130_fd_sc_hd__dfrbp_1/D
+ mem_top_ipin_1.sc_dff_compact_1_.sky130_fd_sc_hd__dfrbp_1/Q mem_top_ipin_1.sc_dff_compact_1_.sky130_fd_sc_hd__dfrbp_1/Q_N
+ pReset clkbuf_3_1_0_prog_clk/X VGND VPWR sky130_fd_sc_hd__dfrbp_1
XFILLER_14_276 VGND VPWR sky130_fd_sc_hd__decap_12
XFILLER_9_59 VGND VPWR sky130_fd_sc_hd__fill_2
XFILLER_9_15 VGND VPWR sky130_fd_sc_hd__decap_12
XFILLER_20_235 VGND VPWR sky130_fd_sc_hd__fill_1
XFILLER_20_213 VGND VPWR sky130_fd_sc_hd__fill_1
Xmem_bottom_ipin_0.sc_dff_compact_3_.sky130_fd_sc_hd__dfrbp_1 mem_bottom_ipin_0.sc_dff_compact_3_.sky130_fd_sc_hd__dfrbp_1/D
+ mem_bottom_ipin_0.sc_dff_compact_3_.sky130_fd_sc_hd__dfrbp_1/Q mem_bottom_ipin_0.sc_dff_compact_3_.sky130_fd_sc_hd__dfrbp_1/Q_N
+ pReset clkbuf_3_2_0_prog_clk/X VGND VPWR sky130_fd_sc_hd__dfrbp_1
XANTENNA_mem_top_ipin_6.sc_dff_compact_0_.sky130_fd_sc_hd__dfrbp_1_RESET_B pReset
+ VGND VPWR sky130_fd_sc_hd__diode_2
XFILLER_11_224 VGND VPWR sky130_fd_sc_hd__fill_2
XFILLER_7_228 VGND VPWR sky130_fd_sc_hd__fill_2
XANTENNA__23__A chanx_left_in[5] VGND VPWR sky130_fd_sc_hd__diode_2
XFILLER_6_261 VGND VPWR sky130_fd_sc_hd__decap_12
XFILLER_1_93 VGND VPWR sky130_fd_sc_hd__fill_1
XFILLER_1_60 VGND VPWR sky130_fd_sc_hd__fill_1
X_28_ chanx_left_in[0] chanx_right_out[0] VGND VPWR sky130_fd_sc_hd__buf_2
XANTENNA__18__A chanx_right_in[1] VGND VPWR sky130_fd_sc_hd__diode_2
XANTENNA_mem_top_ipin_4.sc_dff_compact_3_.sky130_fd_sc_hd__dfrbp_1_D mem_top_ipin_4.sc_dff_compact_2_.sky130_fd_sc_hd__dfrbp_1/Q
+ VGND VPWR sky130_fd_sc_hd__diode_2
XFILLER_19_143 VGND VPWR sky130_fd_sc_hd__fill_1
XFILLER_3_253 VGND VPWR sky130_fd_sc_hd__decap_12
XFILLER_3_297 VGND VPWR sky130_fd_sc_hd__fill_2
XFILLER_6_27 VGND VPWR sky130_fd_sc_hd__decap_4
XPHY_163 VGND VPWR sky130_fd_sc_hd__tapvpwrvgnd_1
XPHY_152 VGND VPWR sky130_fd_sc_hd__tapvpwrvgnd_1
XPHY_141 VGND VPWR sky130_fd_sc_hd__tapvpwrvgnd_1
XPHY_130 VGND VPWR sky130_fd_sc_hd__tapvpwrvgnd_1
XFILLER_8_312 VGND VPWR sky130_fd_sc_hd__decap_12
XFILLER_7_70 VGND VPWR sky130_fd_sc_hd__fill_2
XFILLER_13_127 VGND VPWR sky130_fd_sc_hd__fill_2
XFILLER_3_39 VGND VPWR sky130_fd_sc_hd__decap_12
XFILLER_16_90 VGND VPWR sky130_fd_sc_hd__fill_2
XFILLER_12_171 VGND VPWR sky130_fd_sc_hd__fill_2
XFILLER_8_120 VGND VPWR sky130_fd_sc_hd__fill_2
XFILLER_12_59 VGND VPWR sky130_fd_sc_hd__decap_12
XFILLER_12_15 VGND VPWR sky130_fd_sc_hd__decap_4
XANTENNA__26__A chanx_left_in[2] VGND VPWR sky130_fd_sc_hd__diode_2
XFILLER_2_329 VGND VPWR sky130_fd_sc_hd__fill_1
XANTENNA_mem_top_ipin_5.sc_dff_compact_1_.sky130_fd_sc_hd__dfrbp_1_D mem_top_ipin_5.sc_dff_compact_0_.sky130_fd_sc_hd__dfrbp_1/Q
+ VGND VPWR sky130_fd_sc_hd__diode_2
XFILLER_5_123 VGND VPWR sky130_fd_sc_hd__fill_2
XFILLER_5_189 VGND VPWR sky130_fd_sc_hd__fill_2
XFILLER_4_93 VGND VPWR sky130_fd_sc_hd__fill_2
XFILLER_14_288 VGND VPWR sky130_fd_sc_hd__decap_12
XFILLER_9_27 VGND VPWR sky130_fd_sc_hd__decap_4
XANTENNA_mem_top_ipin_1.sc_dff_compact_5_.sky130_fd_sc_hd__dfrbp_1_CLK clkbuf_3_3_0_prog_clk/X
+ VGND VPWR sky130_fd_sc_hd__diode_2
XFILLER_9_270 VGND VPWR sky130_fd_sc_hd__decap_12
XFILLER_1_192 VGND VPWR sky130_fd_sc_hd__fill_2
XFILLER_1_170 VGND VPWR sky130_fd_sc_hd__fill_1
XANTENNA_mem_top_ipin_0.sc_dff_compact_4_.sky130_fd_sc_hd__dfrbp_1_CLK clkbuf_3_1_0_prog_clk/X
+ VGND VPWR sky130_fd_sc_hd__diode_2
XANTENNA_clkbuf_3_3_0_prog_clk_A clkbuf_3_3_0_prog_clk/A VGND VPWR sky130_fd_sc_hd__diode_2
XFILLER_7_218 VGND VPWR sky130_fd_sc_hd__decap_8
XFILLER_1_3 VGND VPWR sky130_fd_sc_hd__decap_12
XFILLER_6_273 VGND VPWR sky130_fd_sc_hd__fill_2
XFILLER_1_50 VGND VPWR sky130_fd_sc_hd__fill_2
X_27_ chanx_left_in[1] chanx_right_out[1] VGND VPWR sky130_fd_sc_hd__buf_2
XFILLER_20_15 VGND VPWR sky130_fd_sc_hd__decap_12
XANTENNA_mem_bottom_ipin_0.sc_dff_compact_0_.sky130_fd_sc_hd__dfrbp_1_D ccff_head
+ VGND VPWR sky130_fd_sc_hd__diode_2
XFILLER_3_265 VGND VPWR sky130_fd_sc_hd__decap_12
XFILLER_15_15 VGND VPWR sky130_fd_sc_hd__decap_12
XPHY_153 VGND VPWR sky130_fd_sc_hd__tapvpwrvgnd_1
XPHY_142 VGND VPWR sky130_fd_sc_hd__tapvpwrvgnd_1
XPHY_131 VGND VPWR sky130_fd_sc_hd__tapvpwrvgnd_1
XPHY_120 VGND VPWR sky130_fd_sc_hd__tapvpwrvgnd_1
XFILLER_8_324 VGND VPWR sky130_fd_sc_hd__decap_6
XANTENNA_mem_top_ipin_5.sc_dff_compact_4_.sky130_fd_sc_hd__dfrbp_1_D mem_top_ipin_5.sc_dff_compact_4_.sky130_fd_sc_hd__dfrbp_1/D
+ VGND VPWR sky130_fd_sc_hd__diode_2
XPHY_0 VGND VPWR sky130_fd_sc_hd__decap_3
XFILLER_13_106 VGND VPWR sky130_fd_sc_hd__fill_2
XFILLER_8_154 VGND VPWR sky130_fd_sc_hd__decap_12
Xmem_top_ipin_5.sc_dff_compact_4_.sky130_fd_sc_hd__dfrbp_1 mem_top_ipin_5.sc_dff_compact_4_.sky130_fd_sc_hd__dfrbp_1/D
+ mem_top_ipin_5.sc_dff_compact_4_.sky130_fd_sc_hd__dfrbp_1/Q mem_top_ipin_5.sc_dff_compact_4_.sky130_fd_sc_hd__dfrbp_1/Q_N
+ pReset clkbuf_3_5_0_prog_clk/X VGND VPWR sky130_fd_sc_hd__dfrbp_1
XANTENNA_mem_bottom_ipin_2.sc_dff_compact_0_.sky130_fd_sc_hd__dfrbp_1_CLK clkbuf_3_2_0_prog_clk/X
+ VGND VPWR sky130_fd_sc_hd__diode_2
Xmem_top_ipin_2.sc_dff_compact_5_.sky130_fd_sc_hd__dfrbp_1 mem_top_ipin_2.sc_dff_compact_5_.sky130_fd_sc_hd__dfrbp_1/D
+ mem_top_ipin_2.sc_dff_compact_5_.sky130_fd_sc_hd__dfrbp_1/Q mem_top_ipin_2.sc_dff_compact_5_.sky130_fd_sc_hd__dfrbp_1/Q_N
+ pReset clkbuf_3_6_0_prog_clk/X VGND VPWR sky130_fd_sc_hd__dfrbp_1
XFILLER_17_253 VGND VPWR sky130_fd_sc_hd__decap_12
XFILLER_17_242 VGND VPWR sky130_fd_sc_hd__fill_2
Xclkbuf_2_0_0_prog_clk clkbuf_2_1_0_prog_clk/A clkbuf_2_0_0_prog_clk/X VGND VPWR sky130_fd_sc_hd__clkbuf_1
XANTENNA_mem_top_ipin_5.sc_dff_compact_0_.sky130_fd_sc_hd__dfrbp_1_RESET_B pReset
+ VGND VPWR sky130_fd_sc_hd__diode_2
XFILLER_5_113 VGND VPWR sky130_fd_sc_hd__decap_4
XFILLER_5_168 VGND VPWR sky130_fd_sc_hd__fill_1
XFILLER_5_179 VGND VPWR sky130_fd_sc_hd__decap_4
XANTENNA_mem_top_ipin_7.sc_dff_compact_1_.sky130_fd_sc_hd__dfrbp_1_RESET_B pReset
+ VGND VPWR sky130_fd_sc_hd__diode_2
XFILLER_14_212 VGND VPWR sky130_fd_sc_hd__fill_2
XFILLER_14_201 VGND VPWR sky130_fd_sc_hd__decap_8
XFILLER_20_259 VGND VPWR sky130_fd_sc_hd__fill_2
XFILLER_20_215 VGND VPWR sky130_fd_sc_hd__decap_12
XANTENNA_mem_bottom_ipin_0.sc_dff_compact_3_.sky130_fd_sc_hd__dfrbp_1_D mem_bottom_ipin_0.sc_dff_compact_3_.sky130_fd_sc_hd__dfrbp_1/D
+ VGND VPWR sky130_fd_sc_hd__diode_2
XANTENNA_mem_top_ipin_6.sc_dff_compact_2_.sky130_fd_sc_hd__dfrbp_1_D mem_top_ipin_6.sc_dff_compact_1_.sky130_fd_sc_hd__dfrbp_1/Q
+ VGND VPWR sky130_fd_sc_hd__diode_2
XFILLER_9_282 VGND VPWR sky130_fd_sc_hd__decap_12
XFILLER_18_59 VGND VPWR sky130_fd_sc_hd__fill_2
XFILLER_18_15 VGND VPWR sky130_fd_sc_hd__decap_12
Xmem_bottom_ipin_2.sc_dff_compact_1_.sky130_fd_sc_hd__dfrbp_1 mem_bottom_ipin_2.sc_dff_compact_0_.sky130_fd_sc_hd__dfrbp_1/Q
+ mem_bottom_ipin_2.sc_dff_compact_1_.sky130_fd_sc_hd__dfrbp_1/Q mem_bottom_ipin_2.sc_dff_compact_1_.sky130_fd_sc_hd__dfrbp_1/Q_N
+ pReset clkbuf_3_2_0_prog_clk/X VGND VPWR sky130_fd_sc_hd__dfrbp_1
XFILLER_11_204 VGND VPWR sky130_fd_sc_hd__decap_12
Xmem_top_ipin_0.sc_dff_compact_0_.sky130_fd_sc_hd__dfrbp_1 mem_top_ipin_0.sc_dff_compact_0_.sky130_fd_sc_hd__dfrbp_1/D
+ mem_top_ipin_0.sc_dff_compact_1_.sky130_fd_sc_hd__dfrbp_1/D mem_top_ipin_0.sc_dff_compact_0_.sky130_fd_sc_hd__dfrbp_1/Q_N
+ pReset clkbuf_3_0_0_prog_clk/X VGND VPWR sky130_fd_sc_hd__dfrbp_1
XFILLER_20_38 VGND VPWR sky130_fd_sc_hd__decap_12
XFILLER_20_27 VGND VPWR sky130_fd_sc_hd__decap_4
X_26_ chanx_left_in[2] chanx_right_out[2] VGND VPWR sky130_fd_sc_hd__buf_2
XFILLER_1_62 VGND VPWR sky130_fd_sc_hd__decap_8
XFILLER_19_189 VGND VPWR sky130_fd_sc_hd__decap_12
XFILLER_19_123 VGND VPWR sky130_fd_sc_hd__decap_12
XFILLER_10_93 VGND VPWR sky130_fd_sc_hd__decap_12
XFILLER_10_60 VGND VPWR sky130_fd_sc_hd__fill_1
XFILLER_3_211 VGND VPWR sky130_fd_sc_hd__fill_2
XFILLER_3_277 VGND VPWR sky130_fd_sc_hd__decap_12
XFILLER_15_49 VGND VPWR sky130_fd_sc_hd__fill_2
XFILLER_15_27 VGND VPWR sky130_fd_sc_hd__decap_12
XANTENNA_mem_bottom_ipin_0.sc_dff_compact_2_.sky130_fd_sc_hd__dfrbp_1_RESET_B pReset
+ VGND VPWR sky130_fd_sc_hd__diode_2
X_09_ _09_/HI bottom_grid_pin_0_ VGND VPWR sky130_fd_sc_hd__conb_1
XPHY_154 VGND VPWR sky130_fd_sc_hd__tapvpwrvgnd_1
XPHY_143 VGND VPWR sky130_fd_sc_hd__tapvpwrvgnd_1
XPHY_132 VGND VPWR sky130_fd_sc_hd__tapvpwrvgnd_1
XFILLER_16_148 VGND VPWR sky130_fd_sc_hd__decap_4
XPHY_121 VGND VPWR sky130_fd_sc_hd__tapvpwrvgnd_1
XPHY_110 VGND VPWR sky130_fd_sc_hd__tapvpwrvgnd_1
XANTENNA_mem_top_ipin_7.sc_dff_compact_0_.sky130_fd_sc_hd__dfrbp_1_D mem_top_ipin_7.sc_dff_compact_0_.sky130_fd_sc_hd__dfrbp_1/D
+ VGND VPWR sky130_fd_sc_hd__diode_2
XFILLER_15_181 VGND VPWR sky130_fd_sc_hd__fill_2
XANTENNA_mem_bottom_ipin_1.sc_dff_compact_1_.sky130_fd_sc_hd__dfrbp_1_D mem_bottom_ipin_1.sc_dff_compact_0_.sky130_fd_sc_hd__dfrbp_1/Q
+ VGND VPWR sky130_fd_sc_hd__diode_2
XANTENNA_mem_bottom_ipin_2.sc_dff_compact_3_.sky130_fd_sc_hd__dfrbp_1_RESET_B pReset
+ VGND VPWR sky130_fd_sc_hd__diode_2
XANTENNA_mem_top_ipin_4.sc_dff_compact_0_.sky130_fd_sc_hd__dfrbp_1_CLK clkbuf_3_4_0_prog_clk/X
+ VGND VPWR sky130_fd_sc_hd__diode_2
XANTENNA_mem_top_ipin_5.sc_dff_compact_1_.sky130_fd_sc_hd__dfrbp_1_CLK clkbuf_3_5_0_prog_clk/X
+ VGND VPWR sky130_fd_sc_hd__diode_2
XPHY_1 VGND VPWR sky130_fd_sc_hd__decap_3
Xclkbuf_3_2_0_prog_clk clkbuf_3_3_0_prog_clk/A clkbuf_3_2_0_prog_clk/X VGND VPWR sky130_fd_sc_hd__clkbuf_1
XANTENNA_mem_top_ipin_6.sc_dff_compact_2_.sky130_fd_sc_hd__dfrbp_1_CLK clkbuf_3_7_0_prog_clk/X
+ VGND VPWR sky130_fd_sc_hd__diode_2
XFILLER_5_306 VGND VPWR sky130_fd_sc_hd__decap_12
XANTENNA_mem_top_ipin_7.sc_dff_compact_3_.sky130_fd_sc_hd__dfrbp_1_CLK clkbuf_3_7_0_prog_clk/X
+ VGND VPWR sky130_fd_sc_hd__diode_2
XFILLER_8_166 VGND VPWR sky130_fd_sc_hd__decap_6
XFILLER_8_111 VGND VPWR sky130_fd_sc_hd__fill_2
XANTENNA_mem_top_ipin_6.sc_dff_compact_5_.sky130_fd_sc_hd__dfrbp_1_D mem_top_ipin_6.sc_dff_compact_4_.sky130_fd_sc_hd__dfrbp_1/Q
+ VGND VPWR sky130_fd_sc_hd__diode_2
XFILLER_17_265 VGND VPWR sky130_fd_sc_hd__decap_12
XFILLER_14_224 VGND VPWR sky130_fd_sc_hd__fill_1
XFILLER_20_227 VGND VPWR sky130_fd_sc_hd__decap_8
XFILLER_18_27 VGND VPWR sky130_fd_sc_hd__decap_4
XFILLER_11_238 VGND VPWR sky130_fd_sc_hd__fill_2
XFILLER_11_216 VGND VPWR sky130_fd_sc_hd__decap_6
XFILLER_9_294 VGND VPWR sky130_fd_sc_hd__decap_8
XFILLER_7_209 VGND VPWR sky130_fd_sc_hd__fill_2
XFILLER_19_316 VGND VPWR sky130_fd_sc_hd__decap_12
XFILLER_10_271 VGND VPWR sky130_fd_sc_hd__decap_4
XANTENNA_mem_top_ipin_7.sc_dff_compact_3_.sky130_fd_sc_hd__dfrbp_1_D mem_top_ipin_7.sc_dff_compact_2_.sky130_fd_sc_hd__dfrbp_1/Q
+ VGND VPWR sky130_fd_sc_hd__diode_2
XFILLER_1_96 VGND VPWR sky130_fd_sc_hd__decap_8
X_25_ chanx_left_in[3] chanx_right_out[3] VGND VPWR sky130_fd_sc_hd__buf_2
XFILLER_3_245 VGND VPWR sky130_fd_sc_hd__fill_2
XFILLER_3_289 VGND VPWR sky130_fd_sc_hd__decap_4
XFILLER_19_179 VGND VPWR sky130_fd_sc_hd__decap_4
XFILLER_19_146 VGND VPWR sky130_fd_sc_hd__fill_2
XFILLER_19_135 VGND VPWR sky130_fd_sc_hd__decap_8
X_08_ _08_/HI bottom_grid_pin_10_ VGND VPWR sky130_fd_sc_hd__conb_1
XANTENNA_clkbuf_2_2_0_prog_clk_A clkbuf_2_3_0_prog_clk/A VGND VPWR sky130_fd_sc_hd__diode_2
XFILLER_21_311 VGND VPWR sky130_fd_sc_hd__decap_12
XFILLER_16_138 VGND VPWR sky130_fd_sc_hd__decap_8
XFILLER_15_39 VGND VPWR sky130_fd_sc_hd__decap_8
XPHY_100 VGND VPWR sky130_fd_sc_hd__tapvpwrvgnd_1
XPHY_155 VGND VPWR sky130_fd_sc_hd__tapvpwrvgnd_1
XPHY_144 VGND VPWR sky130_fd_sc_hd__tapvpwrvgnd_1
XPHY_133 VGND VPWR sky130_fd_sc_hd__tapvpwrvgnd_1
XPHY_122 VGND VPWR sky130_fd_sc_hd__tapvpwrvgnd_1
XFILLER_12_300 VGND VPWR sky130_fd_sc_hd__decap_12
XPHY_111 VGND VPWR sky130_fd_sc_hd__tapvpwrvgnd_1
XPHY_2 VGND VPWR sky130_fd_sc_hd__decap_3
XANTENNA_mem_top_ipin_4.sc_dff_compact_0_.sky130_fd_sc_hd__dfrbp_1_RESET_B pReset
+ VGND VPWR sky130_fd_sc_hd__diode_2
XFILLER_7_51 VGND VPWR sky130_fd_sc_hd__decap_6
XFILLER_7_62 VGND VPWR sky130_fd_sc_hd__fill_2
XFILLER_16_93 VGND VPWR sky130_fd_sc_hd__fill_2
XFILLER_12_196 VGND VPWR sky130_fd_sc_hd__fill_2
XFILLER_8_145 VGND VPWR sky130_fd_sc_hd__decap_8
XFILLER_5_318 VGND VPWR sky130_fd_sc_hd__decap_12
Xmem_top_ipin_7.sc_dff_compact_2_.sky130_fd_sc_hd__dfrbp_1 mem_top_ipin_7.sc_dff_compact_2_.sky130_fd_sc_hd__dfrbp_1/D
+ mem_top_ipin_7.sc_dff_compact_2_.sky130_fd_sc_hd__dfrbp_1/Q mem_top_ipin_7.sc_dff_compact_2_.sky130_fd_sc_hd__dfrbp_1/Q_N
+ pReset clkbuf_3_7_0_prog_clk/X VGND VPWR sky130_fd_sc_hd__dfrbp_1
XFILLER_12_29 VGND VPWR sky130_fd_sc_hd__fill_2
XANTENNA_mem_bottom_ipin_2.sc_dff_compact_2_.sky130_fd_sc_hd__dfrbp_1_D mem_bottom_ipin_2.sc_dff_compact_1_.sky130_fd_sc_hd__dfrbp_1/Q
+ VGND VPWR sky130_fd_sc_hd__diode_2
XANTENNA_mem_top_ipin_6.sc_dff_compact_1_.sky130_fd_sc_hd__dfrbp_1_RESET_B pReset
+ VGND VPWR sky130_fd_sc_hd__diode_2
XFILLER_5_148 VGND VPWR sky130_fd_sc_hd__decap_12
XFILLER_17_277 VGND VPWR sky130_fd_sc_hd__decap_12
XFILLER_17_211 VGND VPWR sky130_fd_sc_hd__fill_2
Xmem_top_ipin_4.sc_dff_compact_3_.sky130_fd_sc_hd__dfrbp_1 mem_top_ipin_4.sc_dff_compact_2_.sky130_fd_sc_hd__dfrbp_1/Q
+ mem_top_ipin_4.sc_dff_compact_3_.sky130_fd_sc_hd__dfrbp_1/Q mem_top_ipin_4.sc_dff_compact_3_.sky130_fd_sc_hd__dfrbp_1/Q_N
+ pReset clkbuf_3_4_0_prog_clk/X VGND VPWR sky130_fd_sc_hd__dfrbp_1
XFILLER_2_107 VGND VPWR sky130_fd_sc_hd__fill_2
XFILLER_13_72 VGND VPWR sky130_fd_sc_hd__fill_2
XFILLER_1_184 VGND VPWR sky130_fd_sc_hd__decap_6
XFILLER_11_228 VGND VPWR sky130_fd_sc_hd__fill_2
Xmem_top_ipin_1.sc_dff_compact_4_.sky130_fd_sc_hd__dfrbp_1 mem_top_ipin_1.sc_dff_compact_3_.sky130_fd_sc_hd__dfrbp_1/Q
+ mem_top_ipin_1.sc_dff_compact_5_.sky130_fd_sc_hd__dfrbp_1/D mem_top_ipin_1.sc_dff_compact_4_.sky130_fd_sc_hd__dfrbp_1/Q_N
+ pReset clkbuf_3_3_0_prog_clk/X VGND VPWR sky130_fd_sc_hd__dfrbp_1
XFILLER_19_328 VGND VPWR sky130_fd_sc_hd__fill_2
XFILLER_19_306 VGND VPWR sky130_fd_sc_hd__fill_2
X_24_ chanx_left_in[4] chanx_right_out[4] VGND VPWR sky130_fd_sc_hd__buf_2
XFILLER_6_276 VGND VPWR sky130_fd_sc_hd__decap_12
XFILLER_1_42 VGND VPWR sky130_fd_sc_hd__decap_4
XFILLER_1_31 VGND VPWR sky130_fd_sc_hd__decap_4
Xmem_bottom_ipin_1.sc_dff_compact_0_.sky130_fd_sc_hd__dfrbp_1 mem_bottom_ipin_0.sc_dff_compact_5_.sky130_fd_sc_hd__dfrbp_1/Q
+ mem_bottom_ipin_1.sc_dff_compact_0_.sky130_fd_sc_hd__dfrbp_1/Q mem_bottom_ipin_1.sc_dff_compact_0_.sky130_fd_sc_hd__dfrbp_1/Q_N
+ pReset clkbuf_3_2_0_prog_clk/X VGND VPWR sky130_fd_sc_hd__dfrbp_1
XFILLER_10_84 VGND VPWR sky130_fd_sc_hd__decap_8
XFILLER_21_323 VGND VPWR sky130_fd_sc_hd__decap_6
XFILLER_21_301 VGND VPWR sky130_fd_sc_hd__fill_2
X_07_ _07_/HI bottom_grid_pin_12_ VGND VPWR sky130_fd_sc_hd__conb_1
XFILLER_18_191 VGND VPWR sky130_fd_sc_hd__decap_12
XFILLER_0_216 VGND VPWR sky130_fd_sc_hd__fill_1
XFILLER_0_249 VGND VPWR sky130_fd_sc_hd__decap_12
XANTENNA_mem_bottom_ipin_2.sc_dff_compact_5_.sky130_fd_sc_hd__dfrbp_1_D mem_bottom_ipin_2.sc_dff_compact_4_.sky130_fd_sc_hd__dfrbp_1/Q
+ VGND VPWR sky130_fd_sc_hd__diode_2
XFILLER_21_94 VGND VPWR sky130_fd_sc_hd__decap_12
XPHY_156 VGND VPWR sky130_fd_sc_hd__tapvpwrvgnd_1
XPHY_145 VGND VPWR sky130_fd_sc_hd__tapvpwrvgnd_1
XPHY_134 VGND VPWR sky130_fd_sc_hd__tapvpwrvgnd_1
XPHY_123 VGND VPWR sky130_fd_sc_hd__tapvpwrvgnd_1
XFILLER_12_312 VGND VPWR sky130_fd_sc_hd__decap_12
XPHY_112 VGND VPWR sky130_fd_sc_hd__tapvpwrvgnd_1
XPHY_101 VGND VPWR sky130_fd_sc_hd__tapvpwrvgnd_1
XFILLER_15_172 VGND VPWR sky130_fd_sc_hd__fill_2
XFILLER_15_161 VGND VPWR sky130_fd_sc_hd__fill_1
XPHY_3 VGND VPWR sky130_fd_sc_hd__decap_3
XFILLER_7_74 VGND VPWR sky130_fd_sc_hd__decap_3
XFILLER_16_50 VGND VPWR sky130_fd_sc_hd__fill_1
XFILLER_12_120 VGND VPWR sky130_fd_sc_hd__fill_2
XFILLER_17_289 VGND VPWR sky130_fd_sc_hd__decap_12
XFILLER_17_245 VGND VPWR sky130_fd_sc_hd__fill_2
XFILLER_4_182 VGND VPWR sky130_fd_sc_hd__fill_1
XFILLER_4_86 VGND VPWR sky130_fd_sc_hd__fill_2
XFILLER_4_97 VGND VPWR sky130_fd_sc_hd__fill_2
XFILLER_14_248 VGND VPWR sky130_fd_sc_hd__fill_2
XFILLER_14_215 VGND VPWR sky130_fd_sc_hd__fill_2
XFILLER_13_62 VGND VPWR sky130_fd_sc_hd__decap_8
XFILLER_13_51 VGND VPWR sky130_fd_sc_hd__fill_2
XANTENNA_mem_bottom_ipin_0.sc_dff_compact_5_.sky130_fd_sc_hd__dfrbp_1_CLK clkbuf_3_2_0_prog_clk/X
+ VGND VPWR sky130_fd_sc_hd__diode_2
XFILLER_13_270 VGND VPWR sky130_fd_sc_hd__decap_12
XFILLER_9_230 VGND VPWR sky130_fd_sc_hd__fill_2
XFILLER_6_288 VGND VPWR sky130_fd_sc_hd__decap_12
XFILLER_6_233 VGND VPWR sky130_fd_sc_hd__fill_1
XFILLER_6_211 VGND VPWR sky130_fd_sc_hd__decap_3
XFILLER_1_54 VGND VPWR sky130_fd_sc_hd__decap_6
X_23_ chanx_left_in[5] chanx_right_out[5] VGND VPWR sky130_fd_sc_hd__buf_2
XFILLER_19_94 VGND VPWR sky130_fd_sc_hd__decap_12
XANTENNA_mem_top_ipin_3.sc_dff_compact_0_.sky130_fd_sc_hd__dfrbp_1_RESET_B pReset
+ VGND VPWR sky130_fd_sc_hd__diode_2
XFILLER_3_236 VGND VPWR sky130_fd_sc_hd__fill_2