* NGSPICE file created from cby_0__1_.ext - technology: sky130A

* Black-box entry subcircuit for sky130_fd_sc_hd__decap_8 abstract view
.subckt sky130_fd_sc_hd__decap_8 VGND VPWR
.ends

* Black-box entry subcircuit for sky130_fd_sc_hd__fill_1 abstract view
.subckt sky130_fd_sc_hd__fill_1 VGND VPWR
.ends

* Black-box entry subcircuit for sky130_fd_sc_hd__dfrbp_1 abstract view
.subckt sky130_fd_sc_hd__dfrbp_1 D Q Q_N RESET_B CLK VGND VPWR
.ends

* Black-box entry subcircuit for sky130_fd_sc_hd__decap_3 abstract view
.subckt sky130_fd_sc_hd__decap_3 VGND VPWR
.ends

* Black-box entry subcircuit for sky130_fd_sc_hd__decap_4 abstract view
.subckt sky130_fd_sc_hd__decap_4 VGND VPWR
.ends

* Black-box entry subcircuit for sky130_fd_sc_hd__decap_12 abstract view
.subckt sky130_fd_sc_hd__decap_12 VGND VPWR
.ends

* Black-box entry subcircuit for sky130_fd_sc_hd__diode_2 abstract view
.subckt sky130_fd_sc_hd__diode_2 DIODE VGND VPWR
.ends

* Black-box entry subcircuit for sky130_fd_sc_hd__fill_2 abstract view
.subckt sky130_fd_sc_hd__fill_2 VGND VPWR
.ends

* Black-box entry subcircuit for sky130_fd_sc_hd__tapvpwrvgnd_1 abstract view
.subckt sky130_fd_sc_hd__tapvpwrvgnd_1 VGND VPWR
.ends

* Black-box entry subcircuit for sky130_fd_sc_hd__clkbuf_1 abstract view
.subckt sky130_fd_sc_hd__clkbuf_1 A X VGND VPWR
.ends

* Black-box entry subcircuit for sky130_fd_sc_hd__decap_6 abstract view
.subckt sky130_fd_sc_hd__decap_6 VGND VPWR
.ends

* Black-box entry subcircuit for sky130_fd_sc_hd__buf_2 abstract view
.subckt sky130_fd_sc_hd__buf_2 A X VGND VPWR
.ends

* Black-box entry subcircuit for sky130_fd_sc_hd__conb_1 abstract view
.subckt sky130_fd_sc_hd__conb_1 HI LO VGND VPWR
.ends

* Black-box entry subcircuit for sky130_fd_sc_hd__clkbuf_16 abstract view
.subckt sky130_fd_sc_hd__clkbuf_16 A X VGND VPWR
.ends

.subckt cby_0__1_ ccff_head ccff_tail chany_in_0_ chany_in_10_ chany_in_11_ chany_in_12_
+ chany_in_13_ chany_in_14_ chany_in_15_ chany_in_16_ chany_in_17_ chany_in_1_ chany_in_2_
+ chany_in_3_ chany_in_4_ chany_in_5_ chany_in_6_ chany_in_7_ chany_in_8_ chany_in_9_
+ chany_out_0_ chany_out_10_ chany_out_11_ chany_out_12_ chany_out_13_ chany_out_14_
+ chany_out_15_ chany_out_16_ chany_out_17_ chany_out_1_ chany_out_2_ chany_out_3_
+ chany_out_4_ chany_out_5_ chany_out_6_ chany_out_7_ chany_out_8_ chany_out_9_ left_grid_pin_0_
+ left_grid_pin_10_ left_grid_pin_12_ left_grid_pin_14_ left_grid_pin_2_ left_grid_pin_4_
+ left_grid_pin_6_ left_grid_pin_8_ pReset prog_clk right_grid_pin_3_ right_grid_pin_7_
XFILLER_22_166 _02_/VGND _02_/VPWR sky130_fd_sc_hd__decap_8
XFILLER_26_63 PHY_52/VGND PHY_53/VPWR sky130_fd_sc_hd__fill_1
XFILLER_26_52 PHY_52/VGND PHY_53/VPWR sky130_fd_sc_hd__fill_1
Xmem_right_ipin_7.sc_dff_compact_2_.sky130_fd_sc_hd__dfrbp_1 mem_right_ipin_7.sc_dff_compact_1_.sky130_fd_sc_hd__dfrbp_1/Q
+ mem_right_ipin_7.sc_dff_compact_3_.sky130_fd_sc_hd__dfrbp_1/D mem_right_ipin_7.sc_dff_compact_2_.sky130_fd_sc_hd__dfrbp_1/Q_N
+ pReset clkbuf_2_1_0_prog_clk/X PHY_52/VGND PHY_57/VPWR sky130_fd_sc_hd__dfrbp_1
XFILLER_13_111 _05_/VGND PHY_26/VPWR sky130_fd_sc_hd__decap_3
XFILLER_3_56 _26_/VGND _26_/VPWR sky130_fd_sc_hd__decap_4
XFILLER_9_148 _24_/VGND _16_/VPWR sky130_fd_sc_hd__decap_12
XFILLER_8_181 _24_/VGND _24_/VPWR sky130_fd_sc_hd__decap_12
Xmem_right_ipin_4.sc_dff_compact_3_.sky130_fd_sc_hd__dfrbp_1 mem_right_ipin_4.sc_dff_compact_3_.sky130_fd_sc_hd__dfrbp_1/D
+ mem_right_ipin_4.sc_dff_compact_3_.sky130_fd_sc_hd__dfrbp_1/Q mem_right_ipin_4.sc_dff_compact_3_.sky130_fd_sc_hd__dfrbp_1/Q_N
+ pReset clkbuf_2_3_0_prog_clk/X _17_/VGND _27_/VPWR sky130_fd_sc_hd__dfrbp_1
XANTENNA_mem_right_ipin_7.sc_dff_compact_3_.sky130_fd_sc_hd__dfrbp_1_D mem_right_ipin_7.sc_dff_compact_3_.sky130_fd_sc_hd__dfrbp_1/D
+ _18_/VGND PHY_57/VPWR sky130_fd_sc_hd__diode_2
XFILLER_12_76 _05_/VGND _05_/VPWR sky130_fd_sc_hd__fill_2
XFILLER_12_32 _05_/VGND _05_/VPWR sky130_fd_sc_hd__fill_2
XFILLER_12_21 _05_/VGND _05_/VPWR sky130_fd_sc_hd__decap_8
XFILLER_6_107 PHY_93/VGND PHY_13/VPWR sky130_fd_sc_hd__decap_3
XFILLER_5_184 _01_/VGND PHY_13/VPWR sky130_fd_sc_hd__decap_12
Xmem_right_ipin_1.sc_dff_compact_4_.sky130_fd_sc_hd__dfrbp_1 mem_right_ipin_1.sc_dff_compact_3_.sky130_fd_sc_hd__dfrbp_1/Q
+ mem_right_ipin_1.sc_dff_compact_4_.sky130_fd_sc_hd__dfrbp_1/Q mem_right_ipin_1.sc_dff_compact_4_.sky130_fd_sc_hd__dfrbp_1/Q_N
+ pReset clkbuf_2_2_0_prog_clk/X PHY_93/VGND _24_/VPWR sky130_fd_sc_hd__dfrbp_1
XFILLER_2_154 _26_/VGND _07_/VPWR sky130_fd_sc_hd__decap_12
XFILLER_9_99 _24_/VGND _16_/VPWR sky130_fd_sc_hd__fill_2
XANTENNA_clkbuf_2_1_0_prog_clk_A clkbuf_2_1_0_prog_clk/A _02_/VGND PHY_49/VPWR sky130_fd_sc_hd__diode_2
XFILLER_22_7 _02_/VGND _02_/VPWR sky130_fd_sc_hd__fill_1
XFILLER_29_52 _18_/VGND _21_/VPWR sky130_fd_sc_hd__fill_1
XFILLER_20_32 _19_/VGND _19_/VPWR sky130_fd_sc_hd__decap_4
XFILLER_19_172 _00_/VGND _19_/VPWR sky130_fd_sc_hd__decap_8
XFILLER_13_3 _05_/VGND PHY_26/VPWR sky130_fd_sc_hd__decap_12
XFILLER_6_89 PHY_93/VGND PHY_13/VPWR sky130_fd_sc_hd__decap_3
XFILLER_25_175 PHY_51/VGND PHY_53/VPWR sky130_fd_sc_hd__decap_8
XFILLER_25_120 PHY_51/VGND PHY_53/VPWR sky130_fd_sc_hd__fill_2
XPHY_170 _27_/VGND PHY_66/VPWR sky130_fd_sc_hd__tapvpwrvgnd_1
XFILLER_31_145 _17_/VGND _27_/VPWR sky130_fd_sc_hd__decap_12
XFILLER_31_123 _17_/VGND _27_/VPWR sky130_fd_sc_hd__fill_2
XFILLER_31_101 _17_/VGND _27_/VPWR sky130_fd_sc_hd__decap_8
XFILLER_13_123 _05_/VGND PHY_26/VPWR sky130_fd_sc_hd__fill_2
XFILLER_3_68 _26_/VGND _26_/VPWR sky130_fd_sc_hd__fill_2
XFILLER_9_116 _24_/VGND _16_/VPWR sky130_fd_sc_hd__fill_2
XFILLER_8_193 _24_/VGND _24_/VPWR sky130_fd_sc_hd__decap_4
XFILLER_12_11 _05_/VGND _05_/VPWR sky130_fd_sc_hd__fill_1
XFILLER_5_196 _01_/VGND PHY_13/VPWR sky130_fd_sc_hd__fill_2
XFILLER_23_10 _02_/VGND PHY_49/VPWR sky130_fd_sc_hd__fill_2
XANTENNA_mem_right_ipin_0.sc_dff_compact_4_.sky130_fd_sc_hd__dfrbp_1_RESET_B pReset
+ PHY_31/VGND PHY_33/VPWR sky130_fd_sc_hd__diode_2
XFILLER_2_166 _26_/VGND _07_/VPWR sky130_fd_sc_hd__decap_12
XFILLER_9_56 _24_/VGND _16_/VPWR sky130_fd_sc_hd__decap_4
XFILLER_18_32 _00_/VGND _00_/VPWR sky130_fd_sc_hd__fill_2
XANTENNA_mem_right_ipin_2.sc_dff_compact_5_.sky130_fd_sc_hd__dfrbp_1_RESET_B pReset
+ PHY_31/VGND PHY_33/VPWR sky130_fd_sc_hd__diode_2
XFILLER_19_184 _00_/VGND _19_/VPWR sky130_fd_sc_hd__decap_12
XFILLER_6_13 PHY_93/VGND PHY_13/VPWR sky130_fd_sc_hd__decap_4
XFILLER_6_57 PHY_93/VGND PHY_13/VPWR sky130_fd_sc_hd__decap_12
XFILLER_15_33 PHY_31/VGND PHY_33/VPWR sky130_fd_sc_hd__fill_1
XPHY_171 _27_/VGND PHY_66/VPWR sky130_fd_sc_hd__tapvpwrvgnd_1
XFILLER_31_179 _17_/VGND _27_/VPWR sky130_fd_sc_hd__decap_4
XFILLER_31_157 _17_/VGND _27_/VPWR sky130_fd_sc_hd__decap_12
XFILLER_31_113 _17_/VGND _27_/VPWR sky130_fd_sc_hd__fill_2
XFILLER_31_76 _17_/VGND _27_/VPWR sky130_fd_sc_hd__fill_2
XPHY_160 _18_/VGND _21_/VPWR sky130_fd_sc_hd__tapvpwrvgnd_1
XFILLER_16_154 PHY_35/VGND PHY_33/VPWR sky130_fd_sc_hd__decap_12
XFILLER_22_179 _02_/VGND _02_/VPWR sky130_fd_sc_hd__decap_8
XFILLER_26_32 PHY_52/VGND PHY_53/VPWR sky130_fd_sc_hd__decap_12
XFILLER_26_21 PHY_52/VGND PHY_53/VPWR sky130_fd_sc_hd__decap_8
XFILLER_7_9 PHY_93/VGND _24_/VPWR sky130_fd_sc_hd__fill_1
XANTENNA_mem_right_ipin_0.sc_dff_compact_4_.sky130_fd_sc_hd__dfrbp_1_CLK clkbuf_2_2_0_prog_clk/X
+ PHY_35/VGND PHY_33/VPWR sky130_fd_sc_hd__diode_2
XFILLER_12_190 _05_/VGND _05_/VPWR sky130_fd_sc_hd__decap_8
XANTENNA_mem_right_ipin_1.sc_dff_compact_5_.sky130_fd_sc_hd__dfrbp_1_CLK clkbuf_2_2_0_prog_clk/X
+ _16_/VGND _16_/VPWR sky130_fd_sc_hd__diode_2
Xmem_right_ipin_6.sc_dff_compact_1_.sky130_fd_sc_hd__dfrbp_1 mem_right_ipin_6.sc_dff_compact_1_.sky130_fd_sc_hd__dfrbp_1/D
+ mem_right_ipin_6.sc_dff_compact_1_.sky130_fd_sc_hd__dfrbp_1/Q mem_right_ipin_6.sc_dff_compact_1_.sky130_fd_sc_hd__dfrbp_1/Q_N
+ pReset clkbuf_2_1_0_prog_clk/X _19_/VGND _19_/VPWR sky130_fd_sc_hd__dfrbp_1
XFILLER_5_120 _01_/VGND PHY_13/VPWR sky130_fd_sc_hd__fill_2
XFILLER_23_88 _02_/VGND PHY_49/VPWR sky130_fd_sc_hd__decap_12
XFILLER_3_3 _26_/VGND _26_/VPWR sky130_fd_sc_hd__fill_2
XFILLER_2_178 _26_/VGND _07_/VPWR sky130_fd_sc_hd__decap_12
XFILLER_0_15 PHY_0/VGND PHY_0/VPWR sky130_fd_sc_hd__decap_12
Xmem_left_ipin_0.sc_dff_compact_2_.sky130_fd_sc_hd__dfrbp_1 mem_left_ipin_0.sc_dff_compact_2_.sky130_fd_sc_hd__dfrbp_1/D
+ mem_left_ipin_0.sc_dff_compact_2_.sky130_fd_sc_hd__dfrbp_1/Q mem_left_ipin_0.sc_dff_compact_2_.sky130_fd_sc_hd__dfrbp_1/Q_N
+ pReset clkbuf_2_0_0_prog_clk/X PHY_93/VGND _24_/VPWR sky130_fd_sc_hd__dfrbp_1
XFILLER_9_13 _24_/VGND _16_/VPWR sky130_fd_sc_hd__fill_2
Xmem_right_ipin_3.sc_dff_compact_2_.sky130_fd_sc_hd__dfrbp_1 mem_right_ipin_3.sc_dff_compact_2_.sky130_fd_sc_hd__dfrbp_1/D
+ mem_right_ipin_3.sc_dff_compact_2_.sky130_fd_sc_hd__dfrbp_1/Q mem_right_ipin_3.sc_dff_compact_2_.sky130_fd_sc_hd__dfrbp_1/Q_N
+ pReset clkbuf_2_3_0_prog_clk/X _02_/VGND _02_/VPWR sky130_fd_sc_hd__dfrbp_1
Xmem_right_ipin_0.sc_dff_compact_3_.sky130_fd_sc_hd__dfrbp_1 mem_right_ipin_0.sc_dff_compact_3_.sky130_fd_sc_hd__dfrbp_1/D
+ mem_right_ipin_0.sc_dff_compact_4_.sky130_fd_sc_hd__dfrbp_1/D mem_right_ipin_0.sc_dff_compact_3_.sky130_fd_sc_hd__dfrbp_1/Q_N
+ pReset clkbuf_2_2_0_prog_clk/X _05_/VGND _05_/VPWR sky130_fd_sc_hd__dfrbp_1
XFILLER_29_108 _18_/VGND _21_/VPWR sky130_fd_sc_hd__fill_2
XANTENNA_clkbuf_1_0_0_prog_clk_A clkbuf_0_prog_clk/X _00_/VGND _19_/VPWR sky130_fd_sc_hd__diode_2
XFILLER_29_87 _18_/VGND _21_/VPWR sky130_fd_sc_hd__decap_12
XFILLER_6_69 PHY_93/VGND PHY_13/VPWR sky130_fd_sc_hd__decap_12
XFILLER_19_196 _00_/VGND _19_/VPWR sky130_fd_sc_hd__fill_2
XFILLER_31_66 _17_/VGND _27_/VPWR sky130_fd_sc_hd__fill_2
XFILLER_25_111 PHY_51/VGND PHY_53/VPWR sky130_fd_sc_hd__decap_3
XFILLER_16_166 PHY_35/VGND PHY_33/VPWR sky130_fd_sc_hd__decap_12
XFILLER_16_133 PHY_35/VGND PHY_33/VPWR sky130_fd_sc_hd__decap_12
XPHY_172 _27_/VGND PHY_66/VPWR sky130_fd_sc_hd__tapvpwrvgnd_1
XFILLER_31_169 _17_/VGND _27_/VPWR sky130_fd_sc_hd__decap_3
XPHY_161 _17_/VGND _21_/VPWR sky130_fd_sc_hd__tapvpwrvgnd_1
XPHY_150 PHY_52/VGND PHY_53/VPWR sky130_fd_sc_hd__tapvpwrvgnd_1
Xclkbuf_2_1_0_prog_clk clkbuf_2_1_0_prog_clk/A clkbuf_2_1_0_prog_clk/X _02_/VGND PHY_49/VPWR
+ sky130_fd_sc_hd__clkbuf_1
XFILLER_22_136 _02_/VGND _02_/VPWR sky130_fd_sc_hd__decap_12
XFILLER_30_180 _17_/VGND _21_/VPWR sky130_fd_sc_hd__decap_12
XFILLER_26_66 PHY_52/VGND PHY_53/VPWR sky130_fd_sc_hd__fill_2
XFILLER_26_55 PHY_52/VGND PHY_53/VPWR sky130_fd_sc_hd__fill_2
XFILLER_26_44 PHY_52/VGND PHY_53/VPWR sky130_fd_sc_hd__decap_8
XFILLER_12_57 _05_/VGND _05_/VPWR sky130_fd_sc_hd__decap_4
XFILLER_10_128 _16_/VGND _16_/VPWR sky130_fd_sc_hd__fill_2
XANTENNA_mem_right_ipin_1.sc_dff_compact_5_.sky130_fd_sc_hd__dfrbp_1_RESET_B pReset
+ _24_/VGND _16_/VPWR sky130_fd_sc_hd__diode_2
XANTENNA__12__A chany_in_11_ _17_/VGND _27_/VPWR sky130_fd_sc_hd__diode_2
XFILLER_23_45 _02_/VGND PHY_49/VPWR sky130_fd_sc_hd__fill_2
XFILLER_0_27 PHY_0/VGND PHY_0/VPWR sky130_fd_sc_hd__decap_4
XFILLER_29_3 _18_/VGND _21_/VPWR sky130_fd_sc_hd__fill_2
XANTENNA_mem_right_ipin_4.sc_dff_compact_0_.sky130_fd_sc_hd__dfrbp_1_CLK clkbuf_2_3_0_prog_clk/X
+ _18_/VGND PHY_57/VPWR sky130_fd_sc_hd__diode_2
XANTENNA_mem_right_ipin_5.sc_dff_compact_1_.sky130_fd_sc_hd__dfrbp_1_CLK clkbuf_2_1_0_prog_clk/X
+ PHY_52/VGND PHY_53/VPWR sky130_fd_sc_hd__diode_2
XANTENNA_mem_right_ipin_6.sc_dff_compact_2_.sky130_fd_sc_hd__dfrbp_1_CLK clkbuf_2_0_0_prog_clk/X
+ PHY_35/VGND _00_/VPWR sky130_fd_sc_hd__diode_2
XFILLER_29_99 _18_/VGND _21_/VPWR sky130_fd_sc_hd__fill_2
XFILLER_29_55 _18_/VGND _21_/VPWR sky130_fd_sc_hd__fill_2
XFILLER_29_44 _18_/VGND _21_/VPWR sky130_fd_sc_hd__decap_8
XANTENNA_mem_right_ipin_7.sc_dff_compact_3_.sky130_fd_sc_hd__dfrbp_1_CLK clkbuf_2_1_0_prog_clk/X
+ _18_/VGND _21_/VPWR sky130_fd_sc_hd__diode_2
XFILLER_29_11 _18_/VGND _21_/VPWR sky130_fd_sc_hd__fill_2
XFILLER_28_120 _18_/VGND PHY_57/VPWR sky130_fd_sc_hd__fill_2
XFILLER_20_68 _19_/VGND _19_/VPWR sky130_fd_sc_hd__fill_2
XFILLER_19_120 _00_/VGND _19_/VPWR sky130_fd_sc_hd__fill_2
XFILLER_31_56 _17_/VGND _27_/VPWR sky130_fd_sc_hd__fill_1
XFILLER_25_123 PHY_51/VGND PHY_53/VPWR sky130_fd_sc_hd__fill_2
XANTENNA__20__A chany_in_2_ _26_/VGND _26_/VPWR sky130_fd_sc_hd__diode_2
XPHY_173 _27_/VGND PHY_66/VPWR sky130_fd_sc_hd__tapvpwrvgnd_1
XPHY_162 _17_/VGND _21_/VPWR sky130_fd_sc_hd__tapvpwrvgnd_1
XPHY_151 PHY_52/VGND PHY_53/VPWR sky130_fd_sc_hd__tapvpwrvgnd_1
XPHY_140 _02_/VGND PHY_49/VPWR sky130_fd_sc_hd__tapvpwrvgnd_1
XFILLER_16_178 PHY_35/VGND PHY_33/VPWR sky130_fd_sc_hd__decap_12
XFILLER_16_145 PHY_35/VGND PHY_33/VPWR sky130_fd_sc_hd__decap_8
XFILLER_11_3 _16_/VGND _05_/VPWR sky130_fd_sc_hd__decap_6
XFILLER_30_192 _17_/VGND _21_/VPWR sky130_fd_sc_hd__decap_6
XFILLER_22_148 _02_/VGND _02_/VPWR sky130_fd_sc_hd__decap_4
XANTENNA_mem_left_ipin_0.sc_dff_compact_3_.sky130_fd_sc_hd__dfrbp_1_CLK clkbuf_2_0_0_prog_clk/X
+ _01_/VGND _26_/VPWR sky130_fd_sc_hd__diode_2
XFILLER_13_148 _05_/VGND PHY_26/VPWR sky130_fd_sc_hd__decap_12
XANTENNA__15__A chany_in_14_ _26_/VGND _26_/VPWR sky130_fd_sc_hd__diode_2
Xmem_right_ipin_7.sc_dff_compact_5_.sky130_fd_sc_hd__dfrbp_1 mem_right_ipin_7.sc_dff_compact_5_.sky130_fd_sc_hd__dfrbp_1/D
+ ccff_tail mem_right_ipin_7.sc_dff_compact_5_.sky130_fd_sc_hd__dfrbp_1/Q_N pReset
+ clkbuf_2_1_0_prog_clk/X _17_/VGND _27_/VPWR sky130_fd_sc_hd__dfrbp_1
XFILLER_8_152 _24_/VGND _24_/VPWR sky130_fd_sc_hd__fill_1
XFILLER_8_174 _24_/VGND _24_/VPWR sky130_fd_sc_hd__decap_3
XFILLER_10_118 _16_/VGND _16_/VPWR sky130_fd_sc_hd__decap_8
XFILLER_23_35 _02_/VGND PHY_49/VPWR sky130_fd_sc_hd__decap_6
XFILLER_2_114 _26_/VGND _07_/VPWR sky130_fd_sc_hd__decap_12
XFILLER_9_48 _24_/VGND _16_/VPWR sky130_fd_sc_hd__fill_2
Xmem_right_ipin_5.sc_dff_compact_0_.sky130_fd_sc_hd__dfrbp_1 mem_right_ipin_4.sc_dff_compact_5_.sky130_fd_sc_hd__dfrbp_1/Q
+ mem_right_ipin_5.sc_dff_compact_0_.sky130_fd_sc_hd__dfrbp_1/Q mem_right_ipin_5.sc_dff_compact_0_.sky130_fd_sc_hd__dfrbp_1/Q_N
+ pReset clkbuf_2_1_0_prog_clk/X _18_/VGND _21_/VPWR sky130_fd_sc_hd__dfrbp_1
XFILLER_18_57 _00_/VGND _00_/VPWR sky130_fd_sc_hd__decap_4
XFILLER_18_13 _00_/VGND _00_/VPWR sky130_fd_sc_hd__fill_2
XANTENNA__23__A chany_in_5_ _26_/VGND _26_/VPWR sky130_fd_sc_hd__diode_2
Xmem_right_ipin_2.sc_dff_compact_1_.sky130_fd_sc_hd__dfrbp_1 mem_right_ipin_2.sc_dff_compact_0_.sky130_fd_sc_hd__dfrbp_1/Q
+ mem_right_ipin_2.sc_dff_compact_1_.sky130_fd_sc_hd__dfrbp_1/Q mem_right_ipin_2.sc_dff_compact_1_.sky130_fd_sc_hd__dfrbp_1/Q_N
+ pReset clkbuf_2_2_0_prog_clk/X _05_/VGND PHY_26/VPWR sky130_fd_sc_hd__dfrbp_1
XFILLER_1_60 PHY_0/VGND _07_/VPWR sky130_fd_sc_hd__fill_1
XANTENNA__18__A chany_in_17_ _18_/VGND _21_/VPWR sky130_fd_sc_hd__diode_2
XFILLER_28_154 _18_/VGND PHY_57/VPWR sky130_fd_sc_hd__decap_12
XFILLER_20_36 _19_/VGND _19_/VPWR sky130_fd_sc_hd__fill_1
XFILLER_19_110 _00_/VGND _19_/VPWR sky130_fd_sc_hd__decap_4
XFILLER_20_8 _19_/VGND _19_/VPWR sky130_fd_sc_hd__decap_3
XFILLER_10_80 _16_/VGND _16_/VPWR sky130_fd_sc_hd__decap_12
XANTENNA_mem_left_ipin_0.sc_dff_compact_1_.sky130_fd_sc_hd__dfrbp_1_D mem_left_ipin_0.sc_dff_compact_0_.sky130_fd_sc_hd__dfrbp_1/Q
+ PHY_93/VGND PHY_13/VPWR sky130_fd_sc_hd__diode_2
XANTENNA_mem_right_ipin_0.sc_dff_compact_1_.sky130_fd_sc_hd__dfrbp_1_D mem_right_ipin_0.sc_dff_compact_0_.sky130_fd_sc_hd__dfrbp_1/Q
+ _24_/VGND _16_/VPWR sky130_fd_sc_hd__diode_2
XPHY_174 _27_/VGND PHY_66/VPWR sky130_fd_sc_hd__tapvpwrvgnd_1
XPHY_163 _17_/VGND _21_/VPWR sky130_fd_sc_hd__tapvpwrvgnd_1
XPHY_152 PHY_52/VGND PHY_57/VPWR sky130_fd_sc_hd__tapvpwrvgnd_1
XFILLER_24_190 PHY_51/VGND PHY_49/VPWR sky130_fd_sc_hd__decap_8
XPHY_141 _02_/VGND PHY_49/VPWR sky130_fd_sc_hd__tapvpwrvgnd_1
XPHY_130 _00_/VGND _19_/VPWR sky130_fd_sc_hd__tapvpwrvgnd_1
XFILLER_22_105 _02_/VGND _02_/VPWR sky130_fd_sc_hd__decap_8
XFILLER_13_116 _05_/VGND PHY_26/VPWR sky130_fd_sc_hd__fill_2
XANTENNA_mem_right_ipin_0.sc_dff_compact_5_.sky130_fd_sc_hd__dfrbp_1_RESET_B pReset
+ _16_/VGND _05_/VPWR sky130_fd_sc_hd__diode_2
XFILLER_3_28 _26_/VGND _26_/VPWR sky130_fd_sc_hd__decap_12
XFILLER_8_197 _24_/VGND _24_/VPWR sky130_fd_sc_hd__fill_1
XFILLER_12_15 _05_/VGND _05_/VPWR sky130_fd_sc_hd__decap_4
XANTENNA__26__A chany_in_8_ _26_/VGND _26_/VPWR sky130_fd_sc_hd__diode_2
XFILLER_5_9 _01_/VGND PHY_13/VPWR sky130_fd_sc_hd__fill_2
XFILLER_5_112 _01_/VGND PHY_13/VPWR sky130_fd_sc_hd__fill_2
XFILLER_5_123 _01_/VGND PHY_13/VPWR sky130_fd_sc_hd__decap_12
XFILLER_4_60 _01_/VGND _26_/VPWR sky130_fd_sc_hd__decap_12
XFILLER_4_93 _01_/VGND _26_/VPWR sky130_fd_sc_hd__decap_12
XFILLER_2_126 _26_/VGND _07_/VPWR sky130_fd_sc_hd__decap_12
XANTENNA_mem_left_ipin_0.sc_dff_compact_4_.sky130_fd_sc_hd__dfrbp_1_D mem_left_ipin_0.sc_dff_compact_4_.sky130_fd_sc_hd__dfrbp_1/D
+ _24_/VGND _24_/VPWR sky130_fd_sc_hd__diode_2
XANTENNA_mem_right_ipin_0.sc_dff_compact_4_.sky130_fd_sc_hd__dfrbp_1_D mem_right_ipin_0.sc_dff_compact_4_.sky130_fd_sc_hd__dfrbp_1/D
+ PHY_31/VGND PHY_26/VPWR sky130_fd_sc_hd__diode_2
XFILLER_1_3 PHY_0/VGND _07_/VPWR sky130_fd_sc_hd__fill_2
X_27_ chany_in_9_ chany_out_9_ _27_/VGND _27_/VPWR sky130_fd_sc_hd__buf_2
XFILLER_28_166 _18_/VGND PHY_57/VPWR sky130_fd_sc_hd__decap_12
XFILLER_20_15 _19_/VGND _19_/VPWR sky130_fd_sc_hd__fill_2
XFILLER_6_17 PHY_93/VGND PHY_13/VPWR sky130_fd_sc_hd__fill_1
XFILLER_6_28 PHY_93/VGND PHY_13/VPWR sky130_fd_sc_hd__decap_3
XFILLER_33_180 _27_/VGND PHY_66/VPWR sky130_fd_sc_hd__decap_6
XFILLER_15_37 PHY_31/VGND PHY_33/VPWR sky130_fd_sc_hd__fill_2
XFILLER_15_15 PHY_31/VGND PHY_33/VPWR sky130_fd_sc_hd__decap_12
XPHY_175 _27_/VGND PHY_66/VPWR sky130_fd_sc_hd__tapvpwrvgnd_1
XFILLER_31_117 _17_/VGND _27_/VPWR sky130_fd_sc_hd__decap_4
XPHY_164 _17_/VGND _27_/VPWR sky130_fd_sc_hd__tapvpwrvgnd_1
XPHY_153 PHY_52/VGND PHY_57/VPWR sky130_fd_sc_hd__tapvpwrvgnd_1
XPHY_142 _02_/VGND PHY_49/VPWR sky130_fd_sc_hd__tapvpwrvgnd_1
XPHY_131 _19_/VGND _19_/VPWR sky130_fd_sc_hd__tapvpwrvgnd_1
XPHY_120 PHY_35/VGND PHY_33/VPWR sky130_fd_sc_hd__tapvpwrvgnd_1
XPHY_0 PHY_0/VGND PHY_0/VPWR sky130_fd_sc_hd__decap_3
XFILLER_7_82 PHY_93/VGND _24_/VPWR sky130_fd_sc_hd__fill_1
XANTENNA_mem_right_ipin_1.sc_dff_compact_2_.sky130_fd_sc_hd__dfrbp_1_D mem_right_ipin_1.sc_dff_compact_2_.sky130_fd_sc_hd__dfrbp_1/D
+ PHY_93/VGND PHY_13/VPWR sky130_fd_sc_hd__diode_2
XFILLER_8_132 _24_/VGND _24_/VPWR sky130_fd_sc_hd__decap_12
XFILLER_8_154 _24_/VGND _24_/VPWR sky130_fd_sc_hd__decap_12
Xclkbuf_2_0_0_prog_clk clkbuf_2_1_0_prog_clk/A clkbuf_2_0_0_prog_clk/X PHY_31/VGND
+ PHY_33/VPWR sky130_fd_sc_hd__clkbuf_1
XFILLER_5_135 _01_/VGND PHY_13/VPWR sky130_fd_sc_hd__decap_12
XFILLER_23_59 _02_/VGND PHY_49/VPWR sky130_fd_sc_hd__fill_2
XFILLER_4_72 _01_/VGND _26_/VPWR sky130_fd_sc_hd__decap_12
XFILLER_4_190 _01_/VGND _26_/VPWR sky130_fd_sc_hd__decap_8
Xmem_right_ipin_6.sc_dff_compact_4_.sky130_fd_sc_hd__dfrbp_1 mem_right_ipin_6.sc_dff_compact_4_.sky130_fd_sc_hd__dfrbp_1/D
+ mem_right_ipin_6.sc_dff_compact_4_.sky130_fd_sc_hd__dfrbp_1/Q mem_right_ipin_6.sc_dff_compact_4_.sky130_fd_sc_hd__dfrbp_1/Q_N
+ pReset clkbuf_2_0_0_prog_clk/X _00_/VGND _19_/VPWR sky130_fd_sc_hd__dfrbp_1
XFILLER_2_138 _26_/VGND _07_/VPWR sky130_fd_sc_hd__decap_12
XFILLER_2_105 _26_/VGND _07_/VPWR sky130_fd_sc_hd__decap_6
XFILLER_9_17 _24_/VGND _16_/VPWR sky130_fd_sc_hd__fill_2
XFILLER_1_171 PHY_0/VGND _07_/VPWR sky130_fd_sc_hd__decap_12
Xmem_left_ipin_0.sc_dff_compact_5_.sky130_fd_sc_hd__dfrbp_1 mem_left_ipin_0.sc_dff_compact_4_.sky130_fd_sc_hd__dfrbp_1/Q
+ mem_left_ipin_1.sc_dff_compact_0_.sky130_fd_sc_hd__dfrbp_1/D mem_left_ipin_0.sc_dff_compact_5_.sky130_fd_sc_hd__dfrbp_1/Q_N
+ pReset clkbuf_2_0_0_prog_clk/X _16_/VGND _05_/VPWR sky130_fd_sc_hd__dfrbp_1
Xmem_right_ipin_3.sc_dff_compact_5_.sky130_fd_sc_hd__dfrbp_1 mem_right_ipin_3.sc_dff_compact_4_.sky130_fd_sc_hd__dfrbp_1/Q
+ mem_right_ipin_3.sc_dff_compact_5_.sky130_fd_sc_hd__dfrbp_1/Q mem_right_ipin_3.sc_dff_compact_5_.sky130_fd_sc_hd__dfrbp_1/Q_N
+ pReset clkbuf_2_3_0_prog_clk/X PHY_52/VGND PHY_57/VPWR sky130_fd_sc_hd__dfrbp_1
XFILLER_27_3 PHY_52/VGND PHY_57/VPWR sky130_fd_sc_hd__decap_12
XFILLER_24_91 PHY_51/VGND PHY_49/VPWR sky130_fd_sc_hd__fill_1
XANTENNA_mem_right_ipin_2.sc_dff_compact_0_.sky130_fd_sc_hd__dfrbp_1_D mem_right_ipin_2.sc_dff_compact_0_.sky130_fd_sc_hd__dfrbp_1/D
+ _16_/VGND _05_/VPWR sky130_fd_sc_hd__diode_2
XFILLER_29_36 _18_/VGND _21_/VPWR sky130_fd_sc_hd__fill_2
XFILLER_28_145 _18_/VGND PHY_57/VPWR sky130_fd_sc_hd__decap_8
XFILLER_28_101 _18_/VGND PHY_57/VPWR sky130_fd_sc_hd__decap_3
XFILLER_1_62 PHY_0/VGND _07_/VPWR sky130_fd_sc_hd__decap_12
X_26_ chany_in_8_ chany_out_8_ _26_/VGND _26_/VPWR sky130_fd_sc_hd__buf_2
XFILLER_28_178 _18_/VGND PHY_57/VPWR sky130_fd_sc_hd__decap_12
XFILLER_19_123 _00_/VGND _19_/VPWR sky130_fd_sc_hd__fill_2
XFILLER_10_93 _16_/VGND _16_/VPWR sky130_fd_sc_hd__fill_2
X_09_ _09_/HI right_grid_pin_3_ _17_/VGND _27_/VPWR sky130_fd_sc_hd__conb_1
XFILLER_15_27 PHY_31/VGND PHY_33/VPWR sky130_fd_sc_hd__decap_6
XANTENNA_mem_right_ipin_0.sc_dff_compact_3_.sky130_fd_sc_hd__dfrbp_1_CLK clkbuf_2_2_0_prog_clk/X
+ _16_/VGND _05_/VPWR sky130_fd_sc_hd__diode_2
XANTENNA_mem_right_ipin_1.sc_dff_compact_4_.sky130_fd_sc_hd__dfrbp_1_CLK clkbuf_2_2_0_prog_clk/X
+ _24_/VGND _24_/VPWR sky130_fd_sc_hd__diode_2
XANTENNA_mem_right_ipin_1.sc_dff_compact_5_.sky130_fd_sc_hd__dfrbp_1_D mem_right_ipin_1.sc_dff_compact_4_.sky130_fd_sc_hd__dfrbp_1/Q
+ _24_/VGND _16_/VPWR sky130_fd_sc_hd__diode_2
XFILLER_31_129 _17_/VGND _27_/VPWR sky130_fd_sc_hd__fill_2
XPHY_165 _17_/VGND _27_/VPWR sky130_fd_sc_hd__tapvpwrvgnd_1
XFILLER_31_59 _17_/VGND _27_/VPWR sky130_fd_sc_hd__fill_2
XPHY_154 PHY_52/VGND PHY_57/VPWR sky130_fd_sc_hd__tapvpwrvgnd_1
XPHY_143 PHY_51/VGND PHY_49/VPWR sky130_fd_sc_hd__tapvpwrvgnd_1
XPHY_132 _19_/VGND _19_/VPWR sky130_fd_sc_hd__tapvpwrvgnd_1
XPHY_121 PHY_35/VGND PHY_33/VPWR sky130_fd_sc_hd__tapvpwrvgnd_1
XANTENNA_mem_right_ipin_2.sc_dff_compact_5_.sky130_fd_sc_hd__dfrbp_1_CLK clkbuf_2_2_0_prog_clk/X
+ PHY_31/VGND PHY_33/VPWR sky130_fd_sc_hd__diode_2
XPHY_110 _05_/VGND PHY_26/VPWR sky130_fd_sc_hd__tapvpwrvgnd_1
Xmem_right_ipin_1.sc_dff_compact_0_.sky130_fd_sc_hd__dfrbp_1 mem_right_ipin_0.sc_dff_compact_5_.sky130_fd_sc_hd__dfrbp_1/Q
+ mem_right_ipin_1.sc_dff_compact_0_.sky130_fd_sc_hd__dfrbp_1/Q mem_right_ipin_1.sc_dff_compact_0_.sky130_fd_sc_hd__dfrbp_1/Q_N
+ pReset clkbuf_2_2_0_prog_clk/X _16_/VGND _16_/VPWR sky130_fd_sc_hd__dfrbp_1
XFILLER_30_151 _17_/VGND _21_/VPWR sky130_fd_sc_hd__fill_2
XPHY_1 PHY_0/VGND PHY_0/VPWR sky130_fd_sc_hd__decap_3
XFILLER_26_59 PHY_52/VGND PHY_53/VPWR sky130_fd_sc_hd__decap_4
XFILLER_26_15 PHY_52/VGND PHY_53/VPWR sky130_fd_sc_hd__decap_4
XFILLER_21_184 _19_/VGND _02_/VPWR sky130_fd_sc_hd__decap_12
XFILLER_8_144 _24_/VGND _24_/VPWR sky130_fd_sc_hd__decap_8
XFILLER_8_166 _24_/VGND _24_/VPWR sky130_fd_sc_hd__decap_8
XFILLER_5_147 _01_/VGND PHY_13/VPWR sky130_fd_sc_hd__decap_12
XANTENNA_mem_right_ipin_2.sc_dff_compact_3_.sky130_fd_sc_hd__dfrbp_1_D mem_right_ipin_2.sc_dff_compact_3_.sky130_fd_sc_hd__dfrbp_1/D
+ PHY_35/VGND _00_/VPWR sky130_fd_sc_hd__diode_2
XFILLER_4_84 _01_/VGND _26_/VPWR sky130_fd_sc_hd__decap_8
XFILLER_23_49 _02_/VGND PHY_49/VPWR sky130_fd_sc_hd__decap_8
XFILLER_29_7 _18_/VGND _21_/VPWR sky130_fd_sc_hd__fill_2
X_25_ chany_in_7_ chany_out_7_ _26_/VGND _07_/VPWR sky130_fd_sc_hd__buf_2
XFILLER_1_74 PHY_0/VGND _07_/VPWR sky130_fd_sc_hd__decap_12
XFILLER_29_59 _18_/VGND _21_/VPWR sky130_fd_sc_hd__fill_2
XFILLER_19_102 _00_/VGND _19_/VPWR sky130_fd_sc_hd__fill_2
XANTENNA_mem_right_ipin_3.sc_dff_compact_1_.sky130_fd_sc_hd__dfrbp_1_D mem_right_ipin_3.sc_dff_compact_1_.sky130_fd_sc_hd__dfrbp_1/D
+ _00_/VGND _19_/VPWR sky130_fd_sc_hd__diode_2
XANTENNA_clkbuf_2_2_0_prog_clk_A clkbuf_2_3_0_prog_clk/A PHY_31/VGND PHY_26/VPWR sky130_fd_sc_hd__diode_2
X_08_ _08_/HI left_grid_pin_0_ _26_/VGND _26_/VPWR sky130_fd_sc_hd__conb_1
XFILLER_25_127 PHY_51/VGND PHY_53/VPWR sky130_fd_sc_hd__decap_12
XFILLER_25_116 PHY_51/VGND PHY_53/VPWR sky130_fd_sc_hd__fill_2
XFILLER_16_105 PHY_35/VGND PHY_33/VPWR sky130_fd_sc_hd__fill_1
XPHY_100 _24_/VGND _16_/VPWR sky130_fd_sc_hd__tapvpwrvgnd_1
XPHY_166 _17_/VGND _27_/VPWR sky130_fd_sc_hd__tapvpwrvgnd_1
XPHY_155 _18_/VGND PHY_57/VPWR sky130_fd_sc_hd__tapvpwrvgnd_1
XPHY_144 PHY_51/VGND PHY_49/VPWR sky130_fd_sc_hd__tapvpwrvgnd_1
XPHY_133 _19_/VGND _19_/VPWR sky130_fd_sc_hd__tapvpwrvgnd_1
XPHY_122 PHY_35/VGND _00_/VPWR sky130_fd_sc_hd__tapvpwrvgnd_1
XFILLER_15_171 PHY_31/VGND PHY_33/VPWR sky130_fd_sc_hd__decap_12
XPHY_111 _05_/VGND PHY_26/VPWR sky130_fd_sc_hd__tapvpwrvgnd_1
XPHY_2 PHY_0/VGND _07_/VPWR sky130_fd_sc_hd__decap_3
XFILLER_30_174 _17_/VGND _21_/VPWR sky130_fd_sc_hd__fill_2
XFILLER_21_196 _19_/VGND _02_/VPWR sky130_fd_sc_hd__fill_2
XFILLER_7_62 PHY_93/VGND _24_/VPWR sky130_fd_sc_hd__decap_12
XFILLER_16_93 PHY_35/VGND PHY_33/VPWR sky130_fd_sc_hd__decap_12
XFILLER_12_29 _05_/VGND _05_/VPWR sky130_fd_sc_hd__fill_2
XFILLER_5_159 _01_/VGND PHY_13/VPWR sky130_fd_sc_hd__decap_12
XANTENNA_mem_right_ipin_5.sc_dff_compact_0_.sky130_fd_sc_hd__dfrbp_1_CLK clkbuf_2_1_0_prog_clk/X
+ _18_/VGND _21_/VPWR sky130_fd_sc_hd__diode_2
XANTENNA_mem_right_ipin_7.sc_dff_compact_2_.sky130_fd_sc_hd__dfrbp_1_CLK clkbuf_2_1_0_prog_clk/X
+ _18_/VGND PHY_57/VPWR sky130_fd_sc_hd__diode_2
XANTENNA_mem_right_ipin_6.sc_dff_compact_1_.sky130_fd_sc_hd__dfrbp_1_CLK clkbuf_2_1_0_prog_clk/X
+ _19_/VGND _02_/VPWR sky130_fd_sc_hd__diode_2
XFILLER_13_50 _05_/VGND PHY_26/VPWR sky130_fd_sc_hd__fill_2
XFILLER_1_184 PHY_0/VGND _07_/VPWR sky130_fd_sc_hd__decap_12
XANTENNA_mem_right_ipin_3.sc_dff_compact_4_.sky130_fd_sc_hd__dfrbp_1_D mem_right_ipin_3.sc_dff_compact_4_.sky130_fd_sc_hd__dfrbp_1/D
+ PHY_51/VGND PHY_53/VPWR sky130_fd_sc_hd__diode_2
XFILLER_18_17 _00_/VGND _00_/VPWR sky130_fd_sc_hd__decap_12
XFILLER_24_93 PHY_51/VGND PHY_49/VPWR sky130_fd_sc_hd__decap_12
XFILLER_24_71 PHY_51/VGND PHY_49/VPWR sky130_fd_sc_hd__fill_2
Xmem_right_ipin_5.sc_dff_compact_3_.sky130_fd_sc_hd__dfrbp_1 mem_right_ipin_5.sc_dff_compact_2_.sky130_fd_sc_hd__dfrbp_1/Q
+ mem_right_ipin_5.sc_dff_compact_3_.sky130_fd_sc_hd__dfrbp_1/Q mem_right_ipin_5.sc_dff_compact_3_.sky130_fd_sc_hd__dfrbp_1/Q_N
+ pReset clkbuf_2_1_0_prog_clk/X _02_/VGND PHY_49/VPWR sky130_fd_sc_hd__dfrbp_1
XFILLER_1_86 PHY_0/VGND _07_/VPWR sky130_fd_sc_hd__decap_12
XFILLER_1_20 PHY_0/VGND _07_/VPWR sky130_fd_sc_hd__decap_12
XANTENNA_mem_left_ipin_0.sc_dff_compact_2_.sky130_fd_sc_hd__dfrbp_1_CLK clkbuf_2_0_0_prog_clk/X
+ PHY_93/VGND _24_/VPWR sky130_fd_sc_hd__diode_2
X_24_ chany_in_6_ chany_out_6_ _24_/VGND _24_/VPWR sky130_fd_sc_hd__buf_2
XFILLER_10_40 _16_/VGND _16_/VPWR sky130_fd_sc_hd__decap_6
XFILLER_32_3 _27_/VGND _27_/VPWR sky130_fd_sc_hd__fill_2
XFILLER_27_180 PHY_52/VGND PHY_57/VPWR sky130_fd_sc_hd__decap_3
Xmem_right_ipin_2.sc_dff_compact_4_.sky130_fd_sc_hd__dfrbp_1 mem_right_ipin_2.sc_dff_compact_3_.sky130_fd_sc_hd__dfrbp_1/Q
+ mem_right_ipin_2.sc_dff_compact_4_.sky130_fd_sc_hd__dfrbp_1/Q mem_right_ipin_2.sc_dff_compact_4_.sky130_fd_sc_hd__dfrbp_1/Q_N
+ pReset clkbuf_2_3_0_prog_clk/X _00_/VGND _00_/VPWR sky130_fd_sc_hd__dfrbp_1
XFILLER_31_28 _17_/VGND _27_/VPWR sky130_fd_sc_hd__decap_12
XFILLER_25_139 PHY_51/VGND PHY_53/VPWR sky130_fd_sc_hd__decap_12
XFILLER_18_180 _00_/VGND _00_/VPWR sky130_fd_sc_hd__decap_12
X_07_ _07_/HI left_grid_pin_10_ _26_/VGND _07_/VPWR sky130_fd_sc_hd__conb_1
XPHY_167 _27_/VGND _27_/VPWR sky130_fd_sc_hd__tapvpwrvgnd_1
XPHY_156 _18_/VGND PHY_57/VPWR sky130_fd_sc_hd__tapvpwrvgnd_1
XPHY_145 PHY_51/VGND PHY_49/VPWR sky130_fd_sc_hd__tapvpwrvgnd_1
XPHY_134 _19_/VGND _02_/VPWR sky130_fd_sc_hd__tapvpwrvgnd_1
XPHY_123 PHY_35/VGND _00_/VPWR sky130_fd_sc_hd__tapvpwrvgnd_1
XPHY_112 _05_/VGND PHY_26/VPWR sky130_fd_sc_hd__tapvpwrvgnd_1
XPHY_101 _16_/VGND _16_/VPWR sky130_fd_sc_hd__tapvpwrvgnd_1
XFILLER_30_131 _17_/VGND _21_/VPWR sky130_fd_sc_hd__decap_12
XPHY_3 PHY_0/VGND _07_/VPWR sky130_fd_sc_hd__decap_3
XFILLER_7_41 PHY_93/VGND _24_/VPWR sky130_fd_sc_hd__decap_12
XFILLER_7_74 PHY_93/VGND _24_/VPWR sky130_fd_sc_hd__decap_8
XFILLER_7_85 PHY_93/VGND _24_/VPWR sky130_fd_sc_hd__fill_2
XANTENNA_mem_right_ipin_4.sc_dff_compact_2_.sky130_fd_sc_hd__dfrbp_1_D mem_right_ipin_4.sc_dff_compact_2_.sky130_fd_sc_hd__dfrbp_1/D
+ _18_/VGND _21_/VPWR sky130_fd_sc_hd__diode_2
XFILLER_21_131 _19_/VGND _02_/VPWR sky130_fd_sc_hd__decap_12
XFILLER_12_131 _05_/VGND _05_/VPWR sky130_fd_sc_hd__fill_2
XFILLER_32_93 _27_/VGND _27_/VPWR sky130_fd_sc_hd__decap_12
XFILLER_32_60 _27_/VGND _27_/VPWR sky130_fd_sc_hd__fill_1
XFILLER_8_124 _24_/VGND _24_/VPWR sky130_fd_sc_hd__fill_2
XFILLER_5_116 _01_/VGND PHY_13/VPWR sky130_fd_sc_hd__fill_2
XFILLER_13_62 _05_/VGND PHY_26/VPWR sky130_fd_sc_hd__fill_2
XFILLER_1_196 PHY_0/VGND _07_/VPWR sky130_fd_sc_hd__fill_2
XFILLER_18_29 _00_/VGND _00_/VPWR sky130_fd_sc_hd__fill_2
XANTENNA_mem_right_ipin_5.sc_dff_compact_0_.sky130_fd_sc_hd__dfrbp_1_D mem_right_ipin_4.sc_dff_compact_5_.sky130_fd_sc_hd__dfrbp_1/Q
+ _17_/VGND _21_/VPWR sky130_fd_sc_hd__diode_2
XFILLER_1_7 PHY_0/VGND _07_/VPWR sky130_fd_sc_hd__decap_8
X_23_ chany_in_5_ chany_out_5_ _26_/VGND _26_/VPWR sky130_fd_sc_hd__buf_2
XFILLER_1_98 PHY_0/VGND _07_/VPWR sky130_fd_sc_hd__decap_12
XFILLER_1_32 PHY_0/VGND _07_/VPWR sky130_fd_sc_hd__decap_12
XANTENNA_mem_right_ipin_4.sc_dff_compact_5_.sky130_fd_sc_hd__dfrbp_1_D mem_right_ipin_4.sc_dff_compact_4_.sky130_fd_sc_hd__dfrbp_1/Q
+ PHY_52/VGND PHY_53/VPWR sky130_fd_sc_hd__diode_2
XFILLER_20_19 _19_/VGND _19_/VPWR sky130_fd_sc_hd__decap_12
XFILLER_19_148 _00_/VGND _19_/VPWR sky130_fd_sc_hd__decap_12
XFILLER_19_50 _00_/VGND _19_/VPWR sky130_fd_sc_hd__decap_3
XFILLER_33_195 _27_/VGND PHY_66/VPWR sky130_fd_sc_hd__decap_3
XFILLER_25_3 PHY_51/VGND PHY_53/VPWR sky130_fd_sc_hd__decap_6
XFILLER_18_192 _00_/VGND _00_/VPWR sky130_fd_sc_hd__decap_6
X_06_ _06_/HI left_grid_pin_12_ _26_/VGND _26_/VPWR sky130_fd_sc_hd__conb_1
XPHY_168 _27_/VGND _27_/VPWR sky130_fd_sc_hd__tapvpwrvgnd_1
XPHY_157 _18_/VGND PHY_57/VPWR sky130_fd_sc_hd__tapvpwrvgnd_1
XPHY_146 PHY_51/VGND PHY_53/VPWR sky130_fd_sc_hd__tapvpwrvgnd_1
XFILLER_24_140 PHY_51/VGND PHY_49/VPWR sky130_fd_sc_hd__decap_12
XPHY_135 _19_/VGND _02_/VPWR sky130_fd_sc_hd__tapvpwrvgnd_1
XFILLER_21_62 _19_/VGND _02_/VPWR sky130_fd_sc_hd__fill_2