* NGSPICE file created from sb_0__3_.ext - technology: sky130A

* Black-box entry subcircuit for sky130_fd_sc_hd__decap_12 abstract view
.subckt sky130_fd_sc_hd__decap_12 VGND VPWR
.ends

* Black-box entry subcircuit for sky130_fd_sc_hd__tapvpwrvgnd_1 abstract view
.subckt sky130_fd_sc_hd__tapvpwrvgnd_1 VGND VPWR
.ends

* Black-box entry subcircuit for sky130_fd_sc_hd__fill_2 abstract view
.subckt sky130_fd_sc_hd__fill_2 VGND VPWR
.ends

* Black-box entry subcircuit for sky130_fd_sc_hd__decap_3 abstract view
.subckt sky130_fd_sc_hd__decap_3 VGND VPWR
.ends

* Black-box entry subcircuit for sky130_fd_sc_hd__decap_8 abstract view
.subckt sky130_fd_sc_hd__decap_8 VGND VPWR
.ends

* Black-box entry subcircuit for sky130_fd_sc_hd__dfrbp_1 abstract view
.subckt sky130_fd_sc_hd__dfrbp_1 D Q Q_N RESET_B CLK VGND VPWR
.ends

* Black-box entry subcircuit for sky130_fd_sc_hd__diode_2 abstract view
.subckt sky130_fd_sc_hd__diode_2 DIODE VGND VPWR
.ends

* Black-box entry subcircuit for sky130_fd_sc_hd__decap_4 abstract view
.subckt sky130_fd_sc_hd__decap_4 VGND VPWR
.ends

* Black-box entry subcircuit for sky130_fd_sc_hd__decap_6 abstract view
.subckt sky130_fd_sc_hd__decap_6 VGND VPWR
.ends

* Black-box entry subcircuit for sky130_fd_sc_hd__fill_1 abstract view
.subckt sky130_fd_sc_hd__fill_1 VGND VPWR
.ends

* Black-box entry subcircuit for sky130_fd_sc_hd__clkbuf_1 abstract view
.subckt sky130_fd_sc_hd__clkbuf_1 A X VGND VPWR
.ends

* Black-box entry subcircuit for sky130_fd_sc_hd__conb_1 abstract view
.subckt sky130_fd_sc_hd__conb_1 HI LO VGND VPWR
.ends

* Black-box entry subcircuit for sky130_fd_sc_hd__clkbuf_16 abstract view
.subckt sky130_fd_sc_hd__clkbuf_16 A X VGND VPWR
.ends

.subckt sb_0__3_ right_bottom_grid_pin_12_ chanx_right_out[0] chanx_right_out[1] chanx_right_out[2]
+ chanx_right_out[3] chanx_right_out[4] chanx_right_out[5] chanx_right_out[6] chanx_right_out[7]
+ chanx_right_out[8] chanx_right_in[0] chanx_right_in[1] chanx_right_in[2] chanx_right_in[3]
+ chanx_right_in[4] chanx_right_in[5] chanx_right_in[6] chanx_right_in[7] chanx_right_in[8]
+ right_top_grid_pin_1_ right_top_grid_pin_3_ right_top_grid_pin_5_ right_top_grid_pin_7_
+ right_top_grid_pin_9_ right_top_grid_pin_11_ right_top_grid_pin_13_ right_top_grid_pin_15_
+ ccff_head ccff_tail bottom_left_grid_pin_1_ bottom_left_grid_pin_3_ bottom_left_grid_pin_5_
+ bottom_left_grid_pin_7_ bottom_left_grid_pin_9_ bottom_left_grid_pin_11_ bottom_left_grid_pin_13_
+ bottom_left_grid_pin_15_ prog_clk pReset chany_bottom_out[0] chany_bottom_out[1]
+ chany_bottom_out[2] chany_bottom_out[3] chany_bottom_out[4] chany_bottom_out[5]
+ chany_bottom_out[6] chany_bottom_out[7] chany_bottom_out[8] chany_bottom_in[0] chany_bottom_in[1]
+ chany_bottom_in[2] chany_bottom_in[3] chany_bottom_in[4] chany_bottom_in[5] chany_bottom_in[6]
+ chany_bottom_in[7] chany_bottom_in[8] bottom_right_grid_pin_11_ VPWR VGND
XFILLER_79_391 VGND VPWR sky130_fd_sc_hd__decap_12
XFILLER_94_361 VGND VPWR sky130_fd_sc_hd__decap_12
XFILLER_67_586 VGND VPWR sky130_fd_sc_hd__decap_12
XFILLER_27_428 VGND VPWR sky130_fd_sc_hd__decap_12
XFILLER_82_556 VGND VPWR sky130_fd_sc_hd__decap_12
XPHY_2408 VGND VPWR sky130_fd_sc_hd__tapvpwrvgnd_1
XFILLER_63_781 VGND VPWR sky130_fd_sc_hd__decap_12
XFILLER_23_623 VGND VPWR sky130_fd_sc_hd__decap_12
XPHY_2419 VGND VPWR sky130_fd_sc_hd__tapvpwrvgnd_1
XPHY_1707 VGND VPWR sky130_fd_sc_hd__tapvpwrvgnd_1
XFILLER_149_842 VGND VPWR sky130_fd_sc_hd__decap_12
XPHY_1718 VGND VPWR sky130_fd_sc_hd__tapvpwrvgnd_1
XPHY_1729 VGND VPWR sky130_fd_sc_hd__tapvpwrvgnd_1
XFILLER_11_818 VGND VPWR sky130_fd_sc_hd__decap_12
XFILLER_22_166 VGND VPWR sky130_fd_sc_hd__decap_12
XFILLER_148_385 VGND VPWR sky130_fd_sc_hd__decap_12
XFILLER_108_227 VGND VPWR sky130_fd_sc_hd__decap_12
XFILLER_123_208 VGND VPWR sky130_fd_sc_hd__decap_12
XFILLER_117_794 VGND VPWR sky130_fd_sc_hd__decap_12
XFILLER_104_422 VGND VPWR sky130_fd_sc_hd__decap_12
XFILLER_132_764 VGND VPWR sky130_fd_sc_hd__decap_12
XFILLER_77_15 VGND VPWR sky130_fd_sc_hd__decap_12
XFILLER_77_306 VGND VPWR sky130_fd_sc_hd__decap_12
XFILLER_77_59 VGND VPWR sky130_fd_sc_hd__fill_2
XFILLER_58_520 VGND VPWR sky130_fd_sc_hd__decap_12
XFILLER_86_873 VGND VPWR sky130_fd_sc_hd__decap_12
XFILLER_73_501 VGND VPWR sky130_fd_sc_hd__decap_12
XFILLER_46_715 VGND VPWR sky130_fd_sc_hd__decap_12
XFILLER_133_98 VGND VPWR sky130_fd_sc_hd__decap_12
XFILLER_45_269 VGND VPWR sky130_fd_sc_hd__decap_12
XFILLER_26_483 VGND VPWR sky130_fd_sc_hd__decap_12
XFILLER_42_910 VGND VPWR sky130_fd_sc_hd__decap_3
XFILLER_60_239 VGND VPWR sky130_fd_sc_hd__decap_12
XFILLER_14_678 VGND VPWR sky130_fd_sc_hd__decap_12
XFILLER_41_464 VGND VPWR sky130_fd_sc_hd__decap_12
XFILLER_139_330 VGND VPWR sky130_fd_sc_hd__decap_12
XFILLER_154_300 VGND VPWR sky130_fd_sc_hd__decap_12
XFILLER_127_525 VGND VPWR sky130_fd_sc_hd__decap_12
XFILLER_9_159 VGND VPWR sky130_fd_sc_hd__decap_12
XFILLER_6_800 VGND VPWR sky130_fd_sc_hd__decap_12
XFILLER_155_867 VGND VPWR sky130_fd_sc_hd__decap_12
XFILLER_10_873 VGND VPWR sky130_fd_sc_hd__decap_12
XFILLER_5_354 VGND VPWR sky130_fd_sc_hd__decap_12
XFILLER_123_720 VGND VPWR sky130_fd_sc_hd__decap_12
XFILLER_107_293 VGND VPWR sky130_fd_sc_hd__decap_12
XFILLER_69_818 VGND VPWR sky130_fd_sc_hd__decap_12
XFILLER_122_263 VGND VPWR sky130_fd_sc_hd__decap_12
XFILLER_95_147 VGND VPWR sky130_fd_sc_hd__decap_12
XFILLER_76_361 VGND VPWR sky130_fd_sc_hd__decap_12
XFILLER_49_586 VGND VPWR sky130_fd_sc_hd__decap_12
XFILLER_91_342 VGND VPWR sky130_fd_sc_hd__decap_12
XFILLER_64_556 VGND VPWR sky130_fd_sc_hd__decap_12
XFILLER_92_898 VGND VPWR sky130_fd_sc_hd__decap_12
XFILLER_45_781 VGND VPWR sky130_fd_sc_hd__decap_12
XFILLER_60_751 VGND VPWR sky130_fd_sc_hd__decap_12
XFILLER_146_812 VGND VPWR sky130_fd_sc_hd__decap_12
XFILLER_105_208 VGND VPWR sky130_fd_sc_hd__decap_12
XFILLER_141_550 VGND VPWR sky130_fd_sc_hd__decap_12
XFILLER_114_764 VGND VPWR sky130_fd_sc_hd__decap_12
XFILLER_101_403 VGND VPWR sky130_fd_sc_hd__decap_12
XFILLER_99_464 VGND VPWR sky130_fd_sc_hd__decap_12
XFILLER_59_306 VGND VPWR sky130_fd_sc_hd__decap_12
XFILLER_87_659 VGND VPWR sky130_fd_sc_hd__decap_12
XFILLER_68_873 VGND VPWR sky130_fd_sc_hd__decap_12
XFILLER_28_715 VGND VPWR sky130_fd_sc_hd__decap_12
XFILLER_55_501 VGND VPWR sky130_fd_sc_hd__decap_12
XFILLER_63_39 VGND VPWR sky130_fd_sc_hd__decap_12
XFILLER_24_910 VGND VPWR sky130_fd_sc_hd__decap_12
XFILLER_27_269 VGND VPWR sky130_fd_sc_hd__decap_12
XPHY_2216 VGND VPWR sky130_fd_sc_hd__tapvpwrvgnd_1
XPHY_2205 VGND VPWR sky130_fd_sc_hd__tapvpwrvgnd_1
XPHY_905 VGND VPWR sky130_fd_sc_hd__tapvpwrvgnd_1
XPHY_916 VGND VPWR sky130_fd_sc_hd__tapvpwrvgnd_1
XPHY_927 VGND VPWR sky130_fd_sc_hd__tapvpwrvgnd_1
XFILLER_42_239 VGND VPWR sky130_fd_sc_hd__decap_12
XPHY_2249 VGND VPWR sky130_fd_sc_hd__tapvpwrvgnd_1
XPHY_2238 VGND VPWR sky130_fd_sc_hd__tapvpwrvgnd_1
XPHY_2227 VGND VPWR sky130_fd_sc_hd__tapvpwrvgnd_1
XPHY_1515 VGND VPWR sky130_fd_sc_hd__tapvpwrvgnd_1
XPHY_1504 VGND VPWR sky130_fd_sc_hd__tapvpwrvgnd_1
XFILLER_23_464 VGND VPWR sky130_fd_sc_hd__decap_12
XPHY_938 VGND VPWR sky130_fd_sc_hd__tapvpwrvgnd_1
XPHY_949 VGND VPWR sky130_fd_sc_hd__tapvpwrvgnd_1
XPHY_1548 VGND VPWR sky130_fd_sc_hd__tapvpwrvgnd_1
XPHY_1526 VGND VPWR sky130_fd_sc_hd__tapvpwrvgnd_1
XPHY_1537 VGND VPWR sky130_fd_sc_hd__tapvpwrvgnd_1
XFILLER_149_672 VGND VPWR sky130_fd_sc_hd__decap_12
XFILLER_136_300 VGND VPWR sky130_fd_sc_hd__decap_12
XPHY_1559 VGND VPWR sky130_fd_sc_hd__tapvpwrvgnd_1
XFILLER_11_659 VGND VPWR sky130_fd_sc_hd__decap_12
XFILLER_109_525 VGND VPWR sky130_fd_sc_hd__decap_12
XFILLER_12_32 VGND VPWR sky130_fd_sc_hd__decap_12
XFILLER_6_129 VGND VPWR sky130_fd_sc_hd__decap_12
XFILLER_137_867 VGND VPWR sky130_fd_sc_hd__decap_12
XFILLER_128_32 VGND VPWR sky130_fd_sc_hd__decap_12
XFILLER_152_837 VGND VPWR sky130_fd_sc_hd__decap_12
XFILLER_105_720 VGND VPWR sky130_fd_sc_hd__decap_12
XFILLER_104_263 VGND VPWR sky130_fd_sc_hd__decap_12
XFILLER_77_147 VGND VPWR sky130_fd_sc_hd__decap_12
XFILLER_92_117 VGND VPWR sky130_fd_sc_hd__decap_12
XFILLER_37_51 VGND VPWR sky130_fd_sc_hd__decap_8
XFILLER_58_361 VGND VPWR sky130_fd_sc_hd__decap_12
XFILLER_73_342 VGND VPWR sky130_fd_sc_hd__decap_12
XFILLER_37_62 VGND VPWR sky130_fd_sc_hd__decap_12
XFILLER_46_556 VGND VPWR sky130_fd_sc_hd__decap_12
XFILLER_74_898 VGND VPWR sky130_fd_sc_hd__decap_12
Xmem_bottom_track_1.sc_dff_compact_1_.sky130_fd_sc_hd__dfrbp_1 mem_bottom_track_1.sc_dff_compact_0_.sky130_fd_sc_hd__dfrbp_1/Q
+ mem_bottom_track_1.sc_dff_compact_1_.sky130_fd_sc_hd__dfrbp_1/Q mem_bottom_track_1.sc_dff_compact_1_.sky130_fd_sc_hd__dfrbp_1/Q_N
+ pReset clkbuf_2_2_0_prog_clk/X VGND VPWR sky130_fd_sc_hd__dfrbp_1
XFILLER_27_781 VGND VPWR sky130_fd_sc_hd__decap_12
XFILLER_61_537 VGND VPWR sky130_fd_sc_hd__decap_12
XFILLER_42_751 VGND VPWR sky130_fd_sc_hd__decap_12
XFILLER_128_812 VGND VPWR sky130_fd_sc_hd__decap_12
XFILLER_139_171 VGND VPWR sky130_fd_sc_hd__decap_12
XANTENNA_mem_bottom_track_5.sc_dff_compact_0_.sky130_fd_sc_hd__dfrbp_1_CLK clkbuf_2_2_0_prog_clk/X
+ VGND VPWR sky130_fd_sc_hd__diode_2
XFILLER_154_141 VGND VPWR sky130_fd_sc_hd__decap_12
XFILLER_5_184 VGND VPWR sky130_fd_sc_hd__decap_12
XFILLER_123_550 VGND VPWR sky130_fd_sc_hd__decap_12
XFILLER_97_924 VGND VPWR sky130_fd_sc_hd__fill_2
XFILLER_111_745 VGND VPWR sky130_fd_sc_hd__decap_12
XFILLER_96_434 VGND VPWR sky130_fd_sc_hd__decap_12
XFILLER_78_80 VGND VPWR sky130_fd_sc_hd__decap_12
XFILLER_69_659 VGND VPWR sky130_fd_sc_hd__decap_12
XFILLER_84_629 VGND VPWR sky130_fd_sc_hd__decap_12
XFILLER_110_288 VGND VPWR sky130_fd_sc_hd__decap_12
XFILLER_37_501 VGND VPWR sky130_fd_sc_hd__decap_12
XFILLER_24_239 VGND VPWR sky130_fd_sc_hd__decap_12
XFILLER_21_924 VGND VPWR sky130_fd_sc_hd__fill_2
XFILLER_60_581 VGND VPWR sky130_fd_sc_hd__decap_12
XFILLER_20_434 VGND VPWR sky130_fd_sc_hd__decap_12
XFILLER_146_642 VGND VPWR sky130_fd_sc_hd__decap_12
XFILLER_118_300 VGND VPWR sky130_fd_sc_hd__decap_12
XFILLER_119_867 VGND VPWR sky130_fd_sc_hd__decap_12
XFILLER_134_837 VGND VPWR sky130_fd_sc_hd__decap_12
XFILLER_145_196 VGND VPWR sky130_fd_sc_hd__decap_12
XFILLER_141_391 VGND VPWR sky130_fd_sc_hd__decap_12
XFILLER_59_147 VGND VPWR sky130_fd_sc_hd__decap_12
XFILLER_114_56 VGND VPWR sky130_fd_sc_hd__decap_12
XFILLER_87_489 VGND VPWR sky130_fd_sc_hd__decap_12
XFILLER_74_117 VGND VPWR sky130_fd_sc_hd__decap_12
XFILLER_74_27 VGND VPWR sky130_fd_sc_hd__decap_4
XFILLER_28_556 VGND VPWR sky130_fd_sc_hd__decap_12
XFILLER_55_342 VGND VPWR sky130_fd_sc_hd__decap_12
XFILLER_83_684 VGND VPWR sky130_fd_sc_hd__decap_12
XFILLER_70_312 VGND VPWR sky130_fd_sc_hd__decap_12
XFILLER_56_898 VGND VPWR sky130_fd_sc_hd__decap_12
XFILLER_130_44 VGND VPWR sky130_fd_sc_hd__decap_12
XANTENNA_mem_bottom_track_17.sc_dff_compact_0_.sky130_fd_sc_hd__dfrbp_1_CLK clkbuf_2_0_0_prog_clk/X
+ VGND VPWR sky130_fd_sc_hd__diode_2
XPHY_702 VGND VPWR sky130_fd_sc_hd__tapvpwrvgnd_1
XFILLER_43_537 VGND VPWR sky130_fd_sc_hd__decap_12
XPHY_2035 VGND VPWR sky130_fd_sc_hd__tapvpwrvgnd_1
XPHY_2013 VGND VPWR sky130_fd_sc_hd__tapvpwrvgnd_1
XPHY_2024 VGND VPWR sky130_fd_sc_hd__tapvpwrvgnd_1
XPHY_2002 VGND VPWR sky130_fd_sc_hd__tapvpwrvgnd_1
XFILLER_90_15 VGND VPWR sky130_fd_sc_hd__decap_12
XFILLER_71_879 VGND VPWR sky130_fd_sc_hd__decap_12
XFILLER_24_751 VGND VPWR sky130_fd_sc_hd__decap_12
XPHY_713 VGND VPWR sky130_fd_sc_hd__tapvpwrvgnd_1
XPHY_735 VGND VPWR sky130_fd_sc_hd__tapvpwrvgnd_1
XPHY_724 VGND VPWR sky130_fd_sc_hd__tapvpwrvgnd_1
XPHY_2068 VGND VPWR sky130_fd_sc_hd__tapvpwrvgnd_1
XPHY_2057 VGND VPWR sky130_fd_sc_hd__tapvpwrvgnd_1
XPHY_2046 VGND VPWR sky130_fd_sc_hd__tapvpwrvgnd_1
XPHY_1323 VGND VPWR sky130_fd_sc_hd__tapvpwrvgnd_1
XPHY_1312 VGND VPWR sky130_fd_sc_hd__tapvpwrvgnd_1
XPHY_1301 VGND VPWR sky130_fd_sc_hd__tapvpwrvgnd_1
XFILLER_12_924 VGND VPWR sky130_fd_sc_hd__fill_2
XPHY_746 VGND VPWR sky130_fd_sc_hd__tapvpwrvgnd_1
XPHY_757 VGND VPWR sky130_fd_sc_hd__tapvpwrvgnd_1
XPHY_768 VGND VPWR sky130_fd_sc_hd__tapvpwrvgnd_1
XFILLER_156_428 VGND VPWR sky130_fd_sc_hd__decap_6
XFILLER_135_3 VGND VPWR sky130_fd_sc_hd__decap_12
XPHY_2079 VGND VPWR sky130_fd_sc_hd__tapvpwrvgnd_1
XPHY_1356 VGND VPWR sky130_fd_sc_hd__tapvpwrvgnd_1
XPHY_1345 VGND VPWR sky130_fd_sc_hd__tapvpwrvgnd_1
XPHY_1334 VGND VPWR sky130_fd_sc_hd__tapvpwrvgnd_1
XPHY_779 VGND VPWR sky130_fd_sc_hd__tapvpwrvgnd_1
XPHY_1389 VGND VPWR sky130_fd_sc_hd__tapvpwrvgnd_1
XPHY_1378 VGND VPWR sky130_fd_sc_hd__tapvpwrvgnd_1
XPHY_1367 VGND VPWR sky130_fd_sc_hd__tapvpwrvgnd_1
XFILLER_11_489 VGND VPWR sky130_fd_sc_hd__decap_12
XFILLER_23_86 VGND VPWR sky130_fd_sc_hd__decap_12
XFILLER_139_86 VGND VPWR sky130_fd_sc_hd__decap_12
XFILLER_136_141 VGND VPWR sky130_fd_sc_hd__decap_12
XFILLER_3_611 VGND VPWR sky130_fd_sc_hd__decap_12
XFILLER_155_74 VGND VPWR sky130_fd_sc_hd__decap_12
XFILLER_152_678 VGND VPWR sky130_fd_sc_hd__decap_12
XFILLER_105_550 VGND VPWR sky130_fd_sc_hd__decap_12
XFILLER_79_924 VGND VPWR sky130_fd_sc_hd__fill_2
XFILLER_2_154 VGND VPWR sky130_fd_sc_hd__decap_12
XFILLER_120_520 VGND VPWR sky130_fd_sc_hd__decap_12
XFILLER_78_434 VGND VPWR sky130_fd_sc_hd__decap_12
XFILLER_93_415 VGND VPWR sky130_fd_sc_hd__decap_12
XFILLER_66_629 VGND VPWR sky130_fd_sc_hd__decap_12
XFILLER_19_501 VGND VPWR sky130_fd_sc_hd__decap_12
XFILLER_64_93 VGND VPWR sky130_fd_sc_hd__decap_12
XFILLER_61_367 VGND VPWR sky130_fd_sc_hd__decap_12
XFILLER_42_581 VGND VPWR sky130_fd_sc_hd__decap_12
XPHY_2580 VGND VPWR sky130_fd_sc_hd__tapvpwrvgnd_1
XPHY_2591 VGND VPWR sky130_fd_sc_hd__tapvpwrvgnd_1
XFILLER_147_428 VGND VPWR sky130_fd_sc_hd__decap_12
XFILLER_30_776 VGND VPWR sky130_fd_sc_hd__decap_12
XFILLER_128_642 VGND VPWR sky130_fd_sc_hd__decap_12
XPHY_1890 VGND VPWR sky130_fd_sc_hd__tapvpwrvgnd_1
XFILLER_143_623 VGND VPWR sky130_fd_sc_hd__decap_12
XFILLER_116_837 VGND VPWR sky130_fd_sc_hd__decap_12
XFILLER_6_471 VGND VPWR sky130_fd_sc_hd__decap_12
XFILLER_127_196 VGND VPWR sky130_fd_sc_hd__decap_12
XFILLER_50_3 VGND VPWR sky130_fd_sc_hd__decap_12
XFILLER_142_166 VGND VPWR sky130_fd_sc_hd__decap_12
XFILLER_131_818 VGND VPWR sky130_fd_sc_hd__decap_12
XFILLER_123_391 VGND VPWR sky130_fd_sc_hd__decap_12
XFILLER_85_916 VGND VPWR sky130_fd_sc_hd__decap_8
XFILLER_111_586 VGND VPWR sky130_fd_sc_hd__decap_12
XFILLER_69_489 VGND VPWR sky130_fd_sc_hd__decap_12
XANTENNA_clkbuf_2_1_0_prog_clk_A clkbuf_2_1_0_prog_clk/A VGND VPWR sky130_fd_sc_hd__diode_2
XFILLER_56_117 VGND VPWR sky130_fd_sc_hd__decap_12
XFILLER_84_459 VGND VPWR sky130_fd_sc_hd__decap_12
XFILLER_37_342 VGND VPWR sky130_fd_sc_hd__decap_12
XFILLER_65_684 VGND VPWR sky130_fd_sc_hd__decap_12
XFILLER_38_898 VGND VPWR sky130_fd_sc_hd__decap_12
XFILLER_25_537 VGND VPWR sky130_fd_sc_hd__decap_12
XFILLER_52_312 VGND VPWR sky130_fd_sc_hd__decap_12
XFILLER_80_654 VGND VPWR sky130_fd_sc_hd__decap_12
XFILLER_40_507 VGND VPWR sky130_fd_sc_hd__decap_12
XFILLER_53_879 VGND VPWR sky130_fd_sc_hd__decap_12
XFILLER_118_141 VGND VPWR sky130_fd_sc_hd__decap_12
XFILLER_146_483 VGND VPWR sky130_fd_sc_hd__decap_12
XFILLER_69_27 VGND VPWR sky130_fd_sc_hd__decap_12
XFILLER_134_678 VGND VPWR sky130_fd_sc_hd__decap_12
XFILLER_121_306 VGND VPWR sky130_fd_sc_hd__decap_12
XFILLER_102_520 VGND VPWR sky130_fd_sc_hd__decap_12
XFILLER_87_220 VGND VPWR sky130_fd_sc_hd__decap_12
XFILLER_0_614 VGND VPWR sky130_fd_sc_hd__decap_6
XFILLER_130_873 VGND VPWR sky130_fd_sc_hd__decap_12
XFILLER_88_776 VGND VPWR sky130_fd_sc_hd__decap_12
XFILLER_85_15 VGND VPWR sky130_fd_sc_hd__decap_12
XFILLER_85_59 VGND VPWR sky130_fd_sc_hd__fill_2
XFILLER_75_415 VGND VPWR sky130_fd_sc_hd__decap_12
XFILLER_48_629 VGND VPWR sky130_fd_sc_hd__decap_12
XFILLER_141_98 VGND VPWR sky130_fd_sc_hd__decap_12
XPHY_510 VGND VPWR sky130_fd_sc_hd__tapvpwrvgnd_1
XFILLER_43_367 VGND VPWR sky130_fd_sc_hd__decap_12
XPHY_521 VGND VPWR sky130_fd_sc_hd__tapvpwrvgnd_1
XPHY_543 VGND VPWR sky130_fd_sc_hd__tapvpwrvgnd_1
XPHY_532 VGND VPWR sky130_fd_sc_hd__tapvpwrvgnd_1
XFILLER_24_581 VGND VPWR sky130_fd_sc_hd__decap_12
XFILLER_11_220 VGND VPWR sky130_fd_sc_hd__decap_12
XFILLER_8_703 VGND VPWR sky130_fd_sc_hd__decap_12
XPHY_554 VGND VPWR sky130_fd_sc_hd__tapvpwrvgnd_1
XPHY_565 VGND VPWR sky130_fd_sc_hd__tapvpwrvgnd_1
XPHY_576 VGND VPWR sky130_fd_sc_hd__tapvpwrvgnd_1
XPHY_587 VGND VPWR sky130_fd_sc_hd__tapvpwrvgnd_1
XPHY_1131 VGND VPWR sky130_fd_sc_hd__tapvpwrvgnd_1
XPHY_1120 VGND VPWR sky130_fd_sc_hd__tapvpwrvgnd_1
XFILLER_129_428 VGND VPWR sky130_fd_sc_hd__decap_12
XFILLER_12_776 VGND VPWR sky130_fd_sc_hd__decap_12
XFILLER_11_264 VGND VPWR sky130_fd_sc_hd__fill_2
XFILLER_11_253 VGND VPWR sky130_fd_sc_hd__decap_8
XFILLER_11_242 VGND VPWR sky130_fd_sc_hd__fill_2
XPHY_598 VGND VPWR sky130_fd_sc_hd__tapvpwrvgnd_1
XPHY_1142 VGND VPWR sky130_fd_sc_hd__tapvpwrvgnd_1
XPHY_1153 VGND VPWR sky130_fd_sc_hd__tapvpwrvgnd_1
XPHY_1164 VGND VPWR sky130_fd_sc_hd__tapvpwrvgnd_1
XPHY_1175 VGND VPWR sky130_fd_sc_hd__tapvpwrvgnd_1
XFILLER_11_297 VGND VPWR sky130_fd_sc_hd__decap_4
XPHY_1186 VGND VPWR sky130_fd_sc_hd__tapvpwrvgnd_1
XPHY_1197 VGND VPWR sky130_fd_sc_hd__tapvpwrvgnd_1
XFILLER_125_623 VGND VPWR sky130_fd_sc_hd__decap_12
XFILLER_7_268 VGND VPWR sky130_fd_sc_hd__fill_2
XFILLER_109_196 VGND VPWR sky130_fd_sc_hd__decap_12
XFILLER_124_166 VGND VPWR sky130_fd_sc_hd__decap_12
XFILLER_113_818 VGND VPWR sky130_fd_sc_hd__decap_12
XFILLER_98_507 VGND VPWR sky130_fd_sc_hd__decap_12
XFILLER_3_452 VGND VPWR sky130_fd_sc_hd__decap_12
XFILLER_105_391 VGND VPWR sky130_fd_sc_hd__decap_12
XFILLER_67_916 VGND VPWR sky130_fd_sc_hd__decap_8
XFILLER_120_361 VGND VPWR sky130_fd_sc_hd__decap_12
XFILLER_38_117 VGND VPWR sky130_fd_sc_hd__decap_12
XFILLER_93_245 VGND VPWR sky130_fd_sc_hd__decap_12
XFILLER_66_459 VGND VPWR sky130_fd_sc_hd__decap_12
XFILLER_19_342 VGND VPWR sky130_fd_sc_hd__decap_12
XFILLER_47_684 VGND VPWR sky130_fd_sc_hd__decap_12
XFILLER_34_312 VGND VPWR sky130_fd_sc_hd__decap_12
XFILLER_62_654 VGND VPWR sky130_fd_sc_hd__decap_12
XFILLER_22_507 VGND VPWR sky130_fd_sc_hd__decap_12
XFILLER_35_879 VGND VPWR sky130_fd_sc_hd__decap_12
XFILLER_98_3 VGND VPWR sky130_fd_sc_hd__decap_12
XFILLER_50_849 VGND VPWR sky130_fd_sc_hd__decap_12
XFILLER_148_715 VGND VPWR sky130_fd_sc_hd__decap_12
XFILLER_147_269 VGND VPWR sky130_fd_sc_hd__decap_12
XFILLER_144_910 VGND VPWR sky130_fd_sc_hd__decap_12
XFILLER_128_483 VGND VPWR sky130_fd_sc_hd__decap_12
XFILLER_143_464 VGND VPWR sky130_fd_sc_hd__decap_12
XFILLER_116_678 VGND VPWR sky130_fd_sc_hd__decap_12
XFILLER_103_306 VGND VPWR sky130_fd_sc_hd__decap_12
XFILLER_131_659 VGND VPWR sky130_fd_sc_hd__decap_12
XFILLER_69_220 VGND VPWR sky130_fd_sc_hd__decap_12
XFILLER_97_562 VGND VPWR sky130_fd_sc_hd__decap_12
XFILLER_112_873 VGND VPWR sky130_fd_sc_hd__decap_12
XFILLER_57_415 VGND VPWR sky130_fd_sc_hd__decap_12
XFILLER_85_757 VGND VPWR sky130_fd_sc_hd__decap_12
XFILLER_25_367 VGND VPWR sky130_fd_sc_hd__decap_12
XFILLER_80_495 VGND VPWR sky130_fd_sc_hd__decap_12
XFILLER_71_39 VGND VPWR sky130_fd_sc_hd__decap_12
XFILLER_40_337 VGND VPWR sky130_fd_sc_hd__decap_12
XFILLER_21_562 VGND VPWR sky130_fd_sc_hd__decap_12
XFILLER_147_781 VGND VPWR sky130_fd_sc_hd__decap_12
XFILLER_107_623 VGND VPWR sky130_fd_sc_hd__decap_12
Xmem_right_track_16.sc_dff_compact_0_.sky130_fd_sc_hd__dfrbp_1 mem_right_track_14.sc_dff_compact_1_.sky130_fd_sc_hd__dfrbp_1/Q
+ mem_right_track_16.sc_dff_compact_1_.sky130_fd_sc_hd__dfrbp_1/D mem_right_track_16.sc_dff_compact_0_.sky130_fd_sc_hd__dfrbp_1/Q_N
+ pReset clkbuf_2_3_0_prog_clk/X VGND VPWR sky130_fd_sc_hd__dfrbp_1
XFILLER_4_227 VGND VPWR sky130_fd_sc_hd__decap_12
XFILLER_20_32 VGND VPWR sky130_fd_sc_hd__decap_12
XFILLER_136_32 VGND VPWR sky130_fd_sc_hd__decap_12
XFILLER_106_166 VGND VPWR sky130_fd_sc_hd__decap_12
XFILLER_121_147 VGND VPWR sky130_fd_sc_hd__decap_12
XFILLER_49_916 VGND VPWR sky130_fd_sc_hd__decap_8
XFILLER_102_361 VGND VPWR sky130_fd_sc_hd__decap_12
XFILLER_0_466 VGND VPWR sky130_fd_sc_hd__decap_12
XFILLER_75_245 VGND VPWR sky130_fd_sc_hd__decap_12
XFILLER_29_74 VGND VPWR sky130_fd_sc_hd__decap_12
XFILLER_48_459 VGND VPWR sky130_fd_sc_hd__decap_12
XFILLER_90_215 VGND VPWR sky130_fd_sc_hd__decap_12
XFILLER_29_684 VGND VPWR sky130_fd_sc_hd__decap_12
XFILLER_71_440 VGND VPWR sky130_fd_sc_hd__decap_12
XFILLER_17_879 VGND VPWR sky130_fd_sc_hd__decap_12
XFILLER_44_654 VGND VPWR sky130_fd_sc_hd__decap_12
XFILLER_45_51 VGND VPWR sky130_fd_sc_hd__decap_8
XFILLER_45_62 VGND VPWR sky130_fd_sc_hd__decap_12
XFILLER_32_849 VGND VPWR sky130_fd_sc_hd__decap_12
XPHY_351 VGND VPWR sky130_fd_sc_hd__tapvpwrvgnd_1
XPHY_340 VGND VPWR sky130_fd_sc_hd__tapvpwrvgnd_1
XPHY_395 VGND VPWR sky130_fd_sc_hd__tapvpwrvgnd_1
XPHY_384 VGND VPWR sky130_fd_sc_hd__tapvpwrvgnd_1
XPHY_362 VGND VPWR sky130_fd_sc_hd__tapvpwrvgnd_1
XPHY_373 VGND VPWR sky130_fd_sc_hd__tapvpwrvgnd_1
XFILLER_8_544 VGND VPWR sky130_fd_sc_hd__decap_12
XFILLER_129_269 VGND VPWR sky130_fd_sc_hd__decap_12
XFILLER_126_910 VGND VPWR sky130_fd_sc_hd__decap_12
XFILLER_144_239 VGND VPWR sky130_fd_sc_hd__decap_12
XFILLER_6_56 VGND VPWR sky130_fd_sc_hd__decap_12
XFILLER_141_924 VGND VPWR sky130_fd_sc_hd__fill_2
XFILLER_125_464 VGND VPWR sky130_fd_sc_hd__decap_12
XFILLER_140_434 VGND VPWR sky130_fd_sc_hd__decap_12
XFILLER_98_337 VGND VPWR sky130_fd_sc_hd__decap_12
XFILLER_113_659 VGND VPWR sky130_fd_sc_hd__decap_12
XFILLER_79_562 VGND VPWR sky130_fd_sc_hd__decap_12
XFILLER_39_415 VGND VPWR sky130_fd_sc_hd__decap_12
XFILLER_94_532 VGND VPWR sky130_fd_sc_hd__decap_12
XFILLER_86_80 VGND VPWR sky130_fd_sc_hd__decap_12
XFILLER_67_757 VGND VPWR sky130_fd_sc_hd__decap_12
XFILLER_13_3 VGND VPWR sky130_fd_sc_hd__decap_12
XFILLER_82_727 VGND VPWR sky130_fd_sc_hd__decap_12
XFILLER_62_495 VGND VPWR sky130_fd_sc_hd__decap_12
XFILLER_22_337 VGND VPWR sky130_fd_sc_hd__decap_12
XFILLER_148_556 VGND VPWR sky130_fd_sc_hd__decap_12
XFILLER_129_781 VGND VPWR sky130_fd_sc_hd__decap_12
XFILLER_144_751 VGND VPWR sky130_fd_sc_hd__decap_12
XFILLER_103_147 VGND VPWR sky130_fd_sc_hd__decap_12
XFILLER_131_489 VGND VPWR sky130_fd_sc_hd__decap_12
XFILLER_106_68 VGND VPWR sky130_fd_sc_hd__decap_12
XFILLER_57_245 VGND VPWR sky130_fd_sc_hd__decap_12
XFILLER_122_56 VGND VPWR sky130_fd_sc_hd__decap_12
XFILLER_100_898 VGND VPWR sky130_fd_sc_hd__decap_12
XFILLER_85_598 VGND VPWR sky130_fd_sc_hd__decap_12
XFILLER_72_215 VGND VPWR sky130_fd_sc_hd__decap_12
XFILLER_82_27 VGND VPWR sky130_fd_sc_hd__decap_4
XFILLER_26_654 VGND VPWR sky130_fd_sc_hd__decap_12
XFILLER_53_440 VGND VPWR sky130_fd_sc_hd__decap_12
XFILLER_13_315 VGND VPWR sky130_fd_sc_hd__fill_2
XFILLER_14_849 VGND VPWR sky130_fd_sc_hd__decap_12
XFILLER_41_635 VGND VPWR sky130_fd_sc_hd__decap_12
XFILLER_139_501 VGND VPWR sky130_fd_sc_hd__decap_12
XFILLER_15_98 VGND VPWR sky130_fd_sc_hd__decap_12
XFILLER_40_178 VGND VPWR sky130_fd_sc_hd__decap_12
XFILLER_108_910 VGND VPWR sky130_fd_sc_hd__decap_12
XFILLER_126_239 VGND VPWR sky130_fd_sc_hd__decap_12
XFILLER_5_525 VGND VPWR sky130_fd_sc_hd__decap_12
XFILLER_31_86 VGND VPWR sky130_fd_sc_hd__decap_12
XFILLER_147_86 VGND VPWR sky130_fd_sc_hd__decap_12
XFILLER_107_464 VGND VPWR sky130_fd_sc_hd__decap_12
XFILLER_123_924 VGND VPWR sky130_fd_sc_hd__fill_2
XFILLER_1_720 VGND VPWR sky130_fd_sc_hd__decap_12
XFILLER_122_434 VGND VPWR sky130_fd_sc_hd__decap_12
XFILLER_0_230 VGND VPWR sky130_fd_sc_hd__decap_12
XFILLER_150_776 VGND VPWR sky130_fd_sc_hd__decap_12
XFILLER_110_629 VGND VPWR sky130_fd_sc_hd__decap_12
XFILLER_95_318 VGND VPWR sky130_fd_sc_hd__decap_12
XFILLER_76_532 VGND VPWR sky130_fd_sc_hd__decap_12
XFILLER_49_757 VGND VPWR sky130_fd_sc_hd__decap_12
XFILLER_64_727 VGND VPWR sky130_fd_sc_hd__decap_12
XFILLER_91_513 VGND VPWR sky130_fd_sc_hd__decap_12
XFILLER_60_922 VGND VPWR sky130_fd_sc_hd__decap_4
XFILLER_71_281 VGND VPWR sky130_fd_sc_hd__decap_12
XFILLER_31_123 VGND VPWR sky130_fd_sc_hd__decap_12
XFILLER_44_495 VGND VPWR sky130_fd_sc_hd__decap_12
XPHY_170 VGND VPWR sky130_fd_sc_hd__decap_3
XFILLER_72_93 VGND VPWR sky130_fd_sc_hd__decap_12
XPHY_192 VGND VPWR sky130_fd_sc_hd__decap_3
XPHY_181 VGND VPWR sky130_fd_sc_hd__decap_3
XFILLER_9_842 VGND VPWR sky130_fd_sc_hd__decap_12
XANTENNA_mem_bottom_track_11.sc_dff_compact_1_.sky130_fd_sc_hd__dfrbp_1_RESET_B pReset
+ VGND VPWR sky130_fd_sc_hd__diode_2
XFILLER_40_690 VGND VPWR sky130_fd_sc_hd__decap_12
XFILLER_145_537 VGND VPWR sky130_fd_sc_hd__decap_12
XFILLER_8_374 VGND VPWR sky130_fd_sc_hd__decap_12
XFILLER_126_751 VGND VPWR sky130_fd_sc_hd__decap_12
XFILLER_99_635 VGND VPWR sky130_fd_sc_hd__decap_12
XFILLER_113_489 VGND VPWR sky130_fd_sc_hd__decap_12
XFILLER_98_178 VGND VPWR sky130_fd_sc_hd__decap_12
XFILLER_100_117 VGND VPWR sky130_fd_sc_hd__decap_12
XFILLER_95_830 VGND VPWR sky130_fd_sc_hd__decap_12
XFILLER_39_245 VGND VPWR sky130_fd_sc_hd__decap_12
XFILLER_94_373 VGND VPWR sky130_fd_sc_hd__decap_12
XFILLER_67_598 VGND VPWR sky130_fd_sc_hd__decap_12
XFILLER_54_215 VGND VPWR sky130_fd_sc_hd__decap_12
XFILLER_82_568 VGND VPWR sky130_fd_sc_hd__decap_12
XFILLER_35_440 VGND VPWR sky130_fd_sc_hd__decap_12
XPHY_2409 VGND VPWR sky130_fd_sc_hd__tapvpwrvgnd_1
XFILLER_23_635 VGND VPWR sky130_fd_sc_hd__decap_12
XFILLER_50_410 VGND VPWR sky130_fd_sc_hd__decap_12
XPHY_1719 VGND VPWR sky130_fd_sc_hd__tapvpwrvgnd_1
XPHY_1708 VGND VPWR sky130_fd_sc_hd__tapvpwrvgnd_1
XFILLER_22_178 VGND VPWR sky130_fd_sc_hd__decap_12
XFILLER_108_239 VGND VPWR sky130_fd_sc_hd__decap_12
XFILLER_144_581 VGND VPWR sky130_fd_sc_hd__decap_12
XFILLER_105_924 VGND VPWR sky130_fd_sc_hd__fill_2
XFILLER_131_220 VGND VPWR sky130_fd_sc_hd__decap_12
XFILLER_104_434 VGND VPWR sky130_fd_sc_hd__decap_12
XFILLER_89_123 VGND VPWR sky130_fd_sc_hd__decap_12
XFILLER_77_27 VGND VPWR sky130_fd_sc_hd__decap_12
XFILLER_132_776 VGND VPWR sky130_fd_sc_hd__decap_12
XFILLER_77_318 VGND VPWR sky130_fd_sc_hd__decap_12
XFILLER_98_690 VGND VPWR sky130_fd_sc_hd__decap_12
XFILLER_58_532 VGND VPWR sky130_fd_sc_hd__decap_12
XFILLER_93_15 VGND VPWR sky130_fd_sc_hd__decap_12
XFILLER_73_513 VGND VPWR sky130_fd_sc_hd__decap_12
XFILLER_46_727 VGND VPWR sky130_fd_sc_hd__decap_12
XFILLER_93_59 VGND VPWR sky130_fd_sc_hd__fill_2
XFILLER_61_708 VGND VPWR sky130_fd_sc_hd__decap_12
XFILLER_13_123 VGND VPWR sky130_fd_sc_hd__decap_12
XFILLER_26_495 VGND VPWR sky130_fd_sc_hd__decap_12
XFILLER_53_281 VGND VPWR sky130_fd_sc_hd__decap_12
XFILLER_41_476 VGND VPWR sky130_fd_sc_hd__decap_12
XFILLER_139_342 VGND VPWR sky130_fd_sc_hd__decap_12
XFILLER_6_812 VGND VPWR sky130_fd_sc_hd__decap_12
XFILLER_22_690 VGND VPWR sky130_fd_sc_hd__decap_12
XFILLER_154_312 VGND VPWR sky130_fd_sc_hd__decap_12
XFILLER_127_537 VGND VPWR sky130_fd_sc_hd__decap_12
XFILLER_155_879 VGND VPWR sky130_fd_sc_hd__decap_12
XFILLER_142_507 VGND VPWR sky130_fd_sc_hd__decap_12
XFILLER_108_751 VGND VPWR sky130_fd_sc_hd__decap_12
XFILLER_111_916 VGND VPWR sky130_fd_sc_hd__decap_8
XFILLER_96_605 VGND VPWR sky130_fd_sc_hd__decap_12
XFILLER_1_550 VGND VPWR sky130_fd_sc_hd__fill_2
XFILLER_77_830 VGND VPWR sky130_fd_sc_hd__decap_12
XFILLER_110_459 VGND VPWR sky130_fd_sc_hd__decap_12
XFILLER_95_159 VGND VPWR sky130_fd_sc_hd__decap_12
XFILLER_92_800 VGND VPWR sky130_fd_sc_hd__decap_12
XFILLER_76_373 VGND VPWR sky130_fd_sc_hd__decap_12
XFILLER_36_215 VGND VPWR sky130_fd_sc_hd__decap_12
XFILLER_49_598 VGND VPWR sky130_fd_sc_hd__decap_12
XFILLER_91_354 VGND VPWR sky130_fd_sc_hd__decap_12
XFILLER_64_568 VGND VPWR sky130_fd_sc_hd__decap_12
XFILLER_17_440 VGND VPWR sky130_fd_sc_hd__decap_12
XFILLER_32_410 VGND VPWR sky130_fd_sc_hd__decap_12
XFILLER_20_605 VGND VPWR sky130_fd_sc_hd__decap_12
XFILLER_80_3 VGND VPWR sky130_fd_sc_hd__decap_12
XFILLER_9_672 VGND VPWR sky130_fd_sc_hd__decap_12
XFILLER_145_367 VGND VPWR sky130_fd_sc_hd__decap_12
XFILLER_126_581 VGND VPWR sky130_fd_sc_hd__decap_12
XFILLER_113_220 VGND VPWR sky130_fd_sc_hd__decap_12
XFILLER_141_562 VGND VPWR sky130_fd_sc_hd__decap_12
XFILLER_114_776 VGND VPWR sky130_fd_sc_hd__decap_12
XFILLER_101_415 VGND VPWR sky130_fd_sc_hd__decap_12
XFILLER_99_476 VGND VPWR sky130_fd_sc_hd__decap_12
XFILLER_59_318 VGND VPWR sky130_fd_sc_hd__decap_12
XFILLER_28_727 VGND VPWR sky130_fd_sc_hd__decap_12
XFILLER_55_513 VGND VPWR sky130_fd_sc_hd__decap_12
XFILLER_83_855 VGND VPWR sky130_fd_sc_hd__decap_12
XFILLER_43_708 VGND VPWR sky130_fd_sc_hd__decap_12
XFILLER_24_922 VGND VPWR sky130_fd_sc_hd__decap_4
XPHY_2217 VGND VPWR sky130_fd_sc_hd__tapvpwrvgnd_1
XPHY_2206 VGND VPWR sky130_fd_sc_hd__tapvpwrvgnd_1
XFILLER_82_398 VGND VPWR sky130_fd_sc_hd__decap_12
XFILLER_35_281 VGND VPWR sky130_fd_sc_hd__decap_12
XPHY_906 VGND VPWR sky130_fd_sc_hd__tapvpwrvgnd_1
XPHY_917 VGND VPWR sky130_fd_sc_hd__tapvpwrvgnd_1
XPHY_2239 VGND VPWR sky130_fd_sc_hd__tapvpwrvgnd_1
XPHY_2228 VGND VPWR sky130_fd_sc_hd__tapvpwrvgnd_1
XPHY_1505 VGND VPWR sky130_fd_sc_hd__tapvpwrvgnd_1
XPHY_928 VGND VPWR sky130_fd_sc_hd__tapvpwrvgnd_1
XPHY_939 VGND VPWR sky130_fd_sc_hd__tapvpwrvgnd_1
XFILLER_50_251 VGND VPWR sky130_fd_sc_hd__decap_12
XPHY_1549 VGND VPWR sky130_fd_sc_hd__tapvpwrvgnd_1
XPHY_1527 VGND VPWR sky130_fd_sc_hd__tapvpwrvgnd_1
XPHY_1538 VGND VPWR sky130_fd_sc_hd__tapvpwrvgnd_1
XPHY_1516 VGND VPWR sky130_fd_sc_hd__tapvpwrvgnd_1
XFILLER_23_476 VGND VPWR sky130_fd_sc_hd__decap_12
XFILLER_149_684 VGND VPWR sky130_fd_sc_hd__decap_12
XFILLER_136_312 VGND VPWR sky130_fd_sc_hd__decap_12
XFILLER_109_537 VGND VPWR sky130_fd_sc_hd__decap_12
XFILLER_12_44 VGND VPWR sky130_fd_sc_hd__decap_12
XFILLER_137_879 VGND VPWR sky130_fd_sc_hd__decap_12
XFILLER_128_44 VGND VPWR sky130_fd_sc_hd__decap_12
XFILLER_124_507 VGND VPWR sky130_fd_sc_hd__decap_12
XFILLER_152_849 VGND VPWR sky130_fd_sc_hd__decap_12
XFILLER_88_15 VGND VPWR sky130_fd_sc_hd__decap_12
XFILLER_144_32 VGND VPWR sky130_fd_sc_hd__decap_12
XFILLER_78_605 VGND VPWR sky130_fd_sc_hd__decap_12
XFILLER_59_830 VGND VPWR sky130_fd_sc_hd__decap_12
XFILLER_77_159 VGND VPWR sky130_fd_sc_hd__decap_12
XFILLER_74_800 VGND VPWR sky130_fd_sc_hd__decap_12
XFILLER_92_129 VGND VPWR sky130_fd_sc_hd__decap_12
XFILLER_18_215 VGND VPWR sky130_fd_sc_hd__decap_12
XFILLER_58_373 VGND VPWR sky130_fd_sc_hd__decap_12
XFILLER_37_74 VGND VPWR sky130_fd_sc_hd__decap_12
XFILLER_46_568 VGND VPWR sky130_fd_sc_hd__decap_12
XFILLER_73_354 VGND VPWR sky130_fd_sc_hd__decap_12