* NGSPICE file created from sb_1__0_.ext - technology: sky130A

* Black-box entry subcircuit for sky130_fd_sc_hd__decap_12 abstract view
.subckt sky130_fd_sc_hd__decap_12 VGND VPWR
.ends

* Black-box entry subcircuit for sky130_fd_sc_hd__tapvpwrvgnd_1 abstract view
.subckt sky130_fd_sc_hd__tapvpwrvgnd_1 VGND VPWR
.ends

* Black-box entry subcircuit for sky130_fd_sc_hd__fill_1 abstract view
.subckt sky130_fd_sc_hd__fill_1 VGND VPWR
.ends

* Black-box entry subcircuit for sky130_fd_sc_hd__fill_2 abstract view
.subckt sky130_fd_sc_hd__fill_2 VGND VPWR
.ends

* Black-box entry subcircuit for sky130_fd_sc_hd__decap_6 abstract view
.subckt sky130_fd_sc_hd__decap_6 VGND VPWR
.ends

* Black-box entry subcircuit for sky130_fd_sc_hd__decap_8 abstract view
.subckt sky130_fd_sc_hd__decap_8 VGND VPWR
.ends

* Black-box entry subcircuit for sky130_fd_sc_hd__decap_4 abstract view
.subckt sky130_fd_sc_hd__decap_4 VGND VPWR
.ends

* Black-box entry subcircuit for sky130_fd_sc_hd__diode_2 abstract view
.subckt sky130_fd_sc_hd__diode_2 DIODE VGND VPWR
.ends

* Black-box entry subcircuit for sky130_fd_sc_hd__dfrbp_1 abstract view
.subckt sky130_fd_sc_hd__dfrbp_1 D Q Q_N RESET_B CLK VGND VPWR
.ends

* Black-box entry subcircuit for sky130_fd_sc_hd__decap_3 abstract view
.subckt sky130_fd_sc_hd__decap_3 VGND VPWR
.ends

* Black-box entry subcircuit for sky130_fd_sc_hd__clkbuf_1 abstract view
.subckt sky130_fd_sc_hd__clkbuf_1 A X VGND VPWR
.ends

* Black-box entry subcircuit for sky130_fd_sc_hd__buf_2 abstract view
.subckt sky130_fd_sc_hd__buf_2 A X VGND VPWR
.ends

* Black-box entry subcircuit for sky130_fd_sc_hd__conb_1 abstract view
.subckt sky130_fd_sc_hd__conb_1 HI LO VGND VPWR
.ends

* Black-box entry subcircuit for sky130_fd_sc_hd__clkbuf_16 abstract view
.subckt sky130_fd_sc_hd__clkbuf_16 A X VGND VPWR
.ends

.subckt sb_1__0_ left_bottom_grid_pin_1_ left_bottom_grid_pin_3_ left_bottom_grid_pin_5_
+ left_bottom_grid_pin_7_ left_bottom_grid_pin_9_ left_bottom_grid_pin_11_ left_bottom_grid_pin_13_
+ left_bottom_grid_pin_15_ chanx_left_out[0] chanx_left_out[1] chanx_left_out[2] chanx_left_out[3]
+ chanx_left_out[4] chanx_left_out[5] chanx_left_out[6] chanx_left_out[7] chanx_left_out[8]
+ chanx_left_in[0] chanx_left_in[1] chanx_left_in[2] chanx_left_in[3] chanx_left_in[4]
+ chanx_left_in[5] chanx_left_in[6] chanx_left_in[7] chanx_left_in[8] ccff_tail prog_clk
+ pReset ccff_head left_top_grid_pin_10_ top_left_grid_pin_13_ chany_top_out[0] chany_top_out[1]
+ chany_top_out[2] chany_top_out[3] chany_top_out[4] chany_top_out[5] chany_top_out[6]
+ chany_top_out[7] chany_top_out[8] chany_top_in[0] chany_top_in[1] chany_top_in[2]
+ chany_top_in[3] chany_top_in[4] chany_top_in[5] chany_top_in[6] chany_top_in[7]
+ chany_top_in[8] top_right_grid_pin_11_ right_bottom_grid_pin_1_ right_bottom_grid_pin_3_
+ right_bottom_grid_pin_5_ right_bottom_grid_pin_7_ right_bottom_grid_pin_9_ right_bottom_grid_pin_11_
+ right_bottom_grid_pin_13_ right_bottom_grid_pin_15_ chanx_right_out[0] chanx_right_out[1]
+ chanx_right_out[2] chanx_right_out[3] chanx_right_out[4] chanx_right_out[5] chanx_right_out[6]
+ chanx_right_out[7] chanx_right_out[8] chanx_right_in[0] chanx_right_in[1] chanx_right_in[2]
+ chanx_right_in[3] chanx_right_in[4] chanx_right_in[5] chanx_right_in[6] chanx_right_in[7]
+ chanx_right_in[8] right_top_grid_pin_10_ VPWR VGND
XFILLER_79_391 VGND VPWR sky130_fd_sc_hd__decap_12
XFILLER_94_361 VGND VPWR sky130_fd_sc_hd__decap_12
XFILLER_67_586 VGND VPWR sky130_fd_sc_hd__decap_12
XFILLER_27_428 VGND VPWR sky130_fd_sc_hd__decap_12
XPHY_3109 VGND VPWR sky130_fd_sc_hd__tapvpwrvgnd_1
XFILLER_82_556 VGND VPWR sky130_fd_sc_hd__decap_12
XPHY_2408 VGND VPWR sky130_fd_sc_hd__tapvpwrvgnd_1
XFILLER_63_781 VGND VPWR sky130_fd_sc_hd__decap_12
XFILLER_23_623 VGND VPWR sky130_fd_sc_hd__decap_12
XFILLER_36_995 VGND VPWR sky130_fd_sc_hd__decap_12
XFILLER_39_1123 VGND VPWR sky130_fd_sc_hd__decap_12
XFILLER_168_617 VGND VPWR sky130_fd_sc_hd__decap_12
XPHY_2419 VGND VPWR sky130_fd_sc_hd__tapvpwrvgnd_1
XFILLER_74_1069 VGND VPWR sky130_fd_sc_hd__decap_12
XPHY_1707 VGND VPWR sky130_fd_sc_hd__tapvpwrvgnd_1
XFILLER_149_842 VGND VPWR sky130_fd_sc_hd__decap_12
XPHY_1729 VGND VPWR sky130_fd_sc_hd__tapvpwrvgnd_1
XPHY_1718 VGND VPWR sky130_fd_sc_hd__tapvpwrvgnd_1
XFILLER_11_818 VGND VPWR sky130_fd_sc_hd__decap_12
XFILLER_22_166 VGND VPWR sky130_fd_sc_hd__decap_12
XFILLER_164_812 VGND VPWR sky130_fd_sc_hd__decap_12
XFILLER_148_385 VGND VPWR sky130_fd_sc_hd__decap_12
XFILLER_175_171 VGND VPWR sky130_fd_sc_hd__decap_12
XFILLER_108_227 VGND VPWR sky130_fd_sc_hd__decap_12
XFILLER_123_208 VGND VPWR sky130_fd_sc_hd__decap_12
XFILLER_117_794 VGND VPWR sky130_fd_sc_hd__decap_12
XFILLER_104_422 VGND VPWR sky130_fd_sc_hd__decap_12
XFILLER_11_1086 VGND VPWR sky130_fd_sc_hd__decap_12
XFILLER_46_1105 VGND VPWR sky130_fd_sc_hd__decap_12
XFILLER_132_764 VGND VPWR sky130_fd_sc_hd__decap_12
XFILLER_105_989 VGND VPWR sky130_fd_sc_hd__decap_12
XFILLER_77_15 VGND VPWR sky130_fd_sc_hd__decap_12
XFILLER_46_1138 VGND VPWR sky130_fd_sc_hd__fill_1
XFILLER_77_306 VGND VPWR sky130_fd_sc_hd__decap_12
XFILLER_77_59 VGND VPWR sky130_fd_sc_hd__fill_2
XFILLER_120_959 VGND VPWR sky130_fd_sc_hd__decap_12
XFILLER_58_520 VGND VPWR sky130_fd_sc_hd__decap_12
XFILLER_86_873 VGND VPWR sky130_fd_sc_hd__decap_12
XFILLER_73_501 VGND VPWR sky130_fd_sc_hd__decap_12
XFILLER_46_715 VGND VPWR sky130_fd_sc_hd__decap_12
XFILLER_172_3 VGND VPWR sky130_fd_sc_hd__fill_2
XFILLER_133_98 VGND VPWR sky130_fd_sc_hd__decap_12
XFILLER_27_940 VGND VPWR sky130_fd_sc_hd__decap_12
XFILLER_45_269 VGND VPWR sky130_fd_sc_hd__decap_12
XPHY_3632 VGND VPWR sky130_fd_sc_hd__tapvpwrvgnd_1
XPHY_3621 VGND VPWR sky130_fd_sc_hd__tapvpwrvgnd_1
XPHY_3610 VGND VPWR sky130_fd_sc_hd__tapvpwrvgnd_1
XFILLER_26_483 VGND VPWR sky130_fd_sc_hd__decap_12
XFILLER_42_910 VGND VPWR sky130_fd_sc_hd__decap_12
XPHY_3676 VGND VPWR sky130_fd_sc_hd__tapvpwrvgnd_1
XPHY_3665 VGND VPWR sky130_fd_sc_hd__tapvpwrvgnd_1
XPHY_3654 VGND VPWR sky130_fd_sc_hd__tapvpwrvgnd_1
XPHY_3643 VGND VPWR sky130_fd_sc_hd__tapvpwrvgnd_1
XPHY_2931 VGND VPWR sky130_fd_sc_hd__tapvpwrvgnd_1
XPHY_2920 VGND VPWR sky130_fd_sc_hd__tapvpwrvgnd_1
XFILLER_60_239 VGND VPWR sky130_fd_sc_hd__decap_12
XPHY_3698 VGND VPWR sky130_fd_sc_hd__tapvpwrvgnd_1
XPHY_3687 VGND VPWR sky130_fd_sc_hd__tapvpwrvgnd_1
XPHY_2964 VGND VPWR sky130_fd_sc_hd__tapvpwrvgnd_1
XPHY_2953 VGND VPWR sky130_fd_sc_hd__tapvpwrvgnd_1
XPHY_2942 VGND VPWR sky130_fd_sc_hd__tapvpwrvgnd_1
XFILLER_14_678 VGND VPWR sky130_fd_sc_hd__decap_12
XFILLER_41_464 VGND VPWR sky130_fd_sc_hd__decap_12
XPHY_2997 VGND VPWR sky130_fd_sc_hd__tapvpwrvgnd_1
XPHY_2986 VGND VPWR sky130_fd_sc_hd__tapvpwrvgnd_1
XFILLER_139_330 VGND VPWR sky130_fd_sc_hd__decap_12
XPHY_2975 VGND VPWR sky130_fd_sc_hd__tapvpwrvgnd_1
XFILLER_167_672 VGND VPWR sky130_fd_sc_hd__decap_12
XFILLER_154_300 VGND VPWR sky130_fd_sc_hd__decap_12
XFILLER_127_525 VGND VPWR sky130_fd_sc_hd__decap_12
XFILLER_9_159 VGND VPWR sky130_fd_sc_hd__decap_12
XFILLER_6_800 VGND VPWR sky130_fd_sc_hd__decap_12
XFILLER_182_642 VGND VPWR sky130_fd_sc_hd__decap_12
XFILLER_177_1013 VGND VPWR sky130_fd_sc_hd__decap_12
XFILLER_155_867 VGND VPWR sky130_fd_sc_hd__decap_12
XFILLER_10_873 VGND VPWR sky130_fd_sc_hd__decap_12
XFILLER_138_1008 VGND VPWR sky130_fd_sc_hd__decap_12
XFILLER_5_354 VGND VPWR sky130_fd_sc_hd__decap_12
XFILLER_181_196 VGND VPWR sky130_fd_sc_hd__decap_12
XFILLER_170_837 VGND VPWR sky130_fd_sc_hd__decap_12
XFILLER_123_720 VGND VPWR sky130_fd_sc_hd__decap_12
XFILLER_107_293 VGND VPWR sky130_fd_sc_hd__decap_12
XFILLER_69_818 VGND VPWR sky130_fd_sc_hd__decap_12
XFILLER_122_263 VGND VPWR sky130_fd_sc_hd__decap_12
XFILLER_95_147 VGND VPWR sky130_fd_sc_hd__decap_12
XFILLER_76_361 VGND VPWR sky130_fd_sc_hd__decap_12
XFILLER_190_93 VGND VPWR sky130_fd_sc_hd__decap_6
XFILLER_97_1025 VGND VPWR sky130_fd_sc_hd__decap_12
XFILLER_49_586 VGND VPWR sky130_fd_sc_hd__decap_12
XFILLER_91_342 VGND VPWR sky130_fd_sc_hd__decap_12
XFILLER_64_556 VGND VPWR sky130_fd_sc_hd__decap_12
XFILLER_92_898 VGND VPWR sky130_fd_sc_hd__decap_12
XFILLER_18_995 VGND VPWR sky130_fd_sc_hd__decap_12
XFILLER_45_781 VGND VPWR sky130_fd_sc_hd__decap_12
XFILLER_177_403 VGND VPWR sky130_fd_sc_hd__decap_12
XFILLER_60_751 VGND VPWR sky130_fd_sc_hd__decap_12
XFILLER_178_959 VGND VPWR sky130_fd_sc_hd__decap_12
XFILLER_34_1020 VGND VPWR sky130_fd_sc_hd__decap_12
XFILLER_192_428 VGND VPWR sky130_fd_sc_hd__decap_6
XFILLER_146_812 VGND VPWR sky130_fd_sc_hd__decap_12
XFILLER_121_1001 VGND VPWR sky130_fd_sc_hd__decap_12
XFILLER_157_171 VGND VPWR sky130_fd_sc_hd__decap_12
XFILLER_172_141 VGND VPWR sky130_fd_sc_hd__decap_12
XFILLER_105_208 VGND VPWR sky130_fd_sc_hd__decap_12
XFILLER_141_550 VGND VPWR sky130_fd_sc_hd__decap_12
XFILLER_114_764 VGND VPWR sky130_fd_sc_hd__decap_12
XFILLER_101_403 VGND VPWR sky130_fd_sc_hd__decap_12
XFILLER_99_464 VGND VPWR sky130_fd_sc_hd__decap_12
XFILLER_59_306 VGND VPWR sky130_fd_sc_hd__decap_12
XFILLER_102_959 VGND VPWR sky130_fd_sc_hd__decap_12
XFILLER_87_659 VGND VPWR sky130_fd_sc_hd__decap_12
XFILLER_132_1130 VGND VPWR sky130_fd_sc_hd__decap_8
XFILLER_68_873 VGND VPWR sky130_fd_sc_hd__decap_12
XFILLER_55_501 VGND VPWR sky130_fd_sc_hd__decap_12
XFILLER_28_715 VGND VPWR sky130_fd_sc_hd__decap_12
XFILLER_41_1013 VGND VPWR sky130_fd_sc_hd__decap_12
XFILLER_63_39 VGND VPWR sky130_fd_sc_hd__decap_12
XFILLER_24_910 VGND VPWR sky130_fd_sc_hd__decap_12
XFILLER_27_269 VGND VPWR sky130_fd_sc_hd__decap_12
XFILLER_179_39 VGND VPWR sky130_fd_sc_hd__decap_12
XPHY_2216 VGND VPWR sky130_fd_sc_hd__tapvpwrvgnd_1
XPHY_2205 VGND VPWR sky130_fd_sc_hd__tapvpwrvgnd_1
XPHY_905 VGND VPWR sky130_fd_sc_hd__tapvpwrvgnd_1
XPHY_916 VGND VPWR sky130_fd_sc_hd__tapvpwrvgnd_1
XPHY_927 VGND VPWR sky130_fd_sc_hd__tapvpwrvgnd_1
XFILLER_42_239 VGND VPWR sky130_fd_sc_hd__decap_12
XFILLER_144_7 VGND VPWR sky130_fd_sc_hd__fill_2
XPHY_2249 VGND VPWR sky130_fd_sc_hd__tapvpwrvgnd_1
XPHY_2238 VGND VPWR sky130_fd_sc_hd__tapvpwrvgnd_1
XPHY_2227 VGND VPWR sky130_fd_sc_hd__tapvpwrvgnd_1
XPHY_1504 VGND VPWR sky130_fd_sc_hd__tapvpwrvgnd_1
XPHY_1515 VGND VPWR sky130_fd_sc_hd__tapvpwrvgnd_1
XFILLER_23_464 VGND VPWR sky130_fd_sc_hd__decap_12
XPHY_938 VGND VPWR sky130_fd_sc_hd__tapvpwrvgnd_1
XPHY_949 VGND VPWR sky130_fd_sc_hd__tapvpwrvgnd_1
XPHY_1548 VGND VPWR sky130_fd_sc_hd__tapvpwrvgnd_1
XPHY_1537 VGND VPWR sky130_fd_sc_hd__tapvpwrvgnd_1
XPHY_1526 VGND VPWR sky130_fd_sc_hd__tapvpwrvgnd_1
XFILLER_183_428 VGND VPWR sky130_fd_sc_hd__decap_12
XFILLER_149_672 VGND VPWR sky130_fd_sc_hd__decap_12
XFILLER_136_300 VGND VPWR sky130_fd_sc_hd__decap_12
XPHY_1559 VGND VPWR sky130_fd_sc_hd__tapvpwrvgnd_1
XFILLER_11_659 VGND VPWR sky130_fd_sc_hd__decap_12
XFILLER_164_642 VGND VPWR sky130_fd_sc_hd__decap_12
XFILLER_109_525 VGND VPWR sky130_fd_sc_hd__decap_12
XFILLER_12_32 VGND VPWR sky130_fd_sc_hd__decap_12
XFILLER_6_129 VGND VPWR sky130_fd_sc_hd__decap_12
XFILLER_192_962 VGND VPWR sky130_fd_sc_hd__decap_12
XFILLER_137_867 VGND VPWR sky130_fd_sc_hd__decap_12
XFILLER_128_32 VGND VPWR sky130_fd_sc_hd__decap_12
XFILLER_152_837 VGND VPWR sky130_fd_sc_hd__decap_12
XFILLER_105_720 VGND VPWR sky130_fd_sc_hd__decap_12
XFILLER_163_196 VGND VPWR sky130_fd_sc_hd__decap_12
XFILLER_2_324 VGND VPWR sky130_fd_sc_hd__decap_12
XFILLER_137_1074 VGND VPWR sky130_fd_sc_hd__decap_12
XFILLER_104_263 VGND VPWR sky130_fd_sc_hd__decap_12
XFILLER_77_147 VGND VPWR sky130_fd_sc_hd__decap_12
XFILLER_92_117 VGND VPWR sky130_fd_sc_hd__decap_12
XFILLER_58_361 VGND VPWR sky130_fd_sc_hd__decap_12
XFILLER_37_51 VGND VPWR sky130_fd_sc_hd__decap_8
XFILLER_73_342 VGND VPWR sky130_fd_sc_hd__decap_12
XFILLER_37_62 VGND VPWR sky130_fd_sc_hd__decap_12
XFILLER_46_556 VGND VPWR sky130_fd_sc_hd__decap_12
XFILLER_74_898 VGND VPWR sky130_fd_sc_hd__decap_12
XFILLER_27_781 VGND VPWR sky130_fd_sc_hd__decap_12
XFILLER_183_1050 VGND VPWR sky130_fd_sc_hd__decap_12
XPHY_3451 VGND VPWR sky130_fd_sc_hd__tapvpwrvgnd_1
XPHY_3440 VGND VPWR sky130_fd_sc_hd__tapvpwrvgnd_1
XFILLER_61_537 VGND VPWR sky130_fd_sc_hd__decap_12
XFILLER_187_745 VGND VPWR sky130_fd_sc_hd__decap_12
XPHY_3473 VGND VPWR sky130_fd_sc_hd__tapvpwrvgnd_1
XPHY_3484 VGND VPWR sky130_fd_sc_hd__tapvpwrvgnd_1
XPHY_3462 VGND VPWR sky130_fd_sc_hd__tapvpwrvgnd_1
XFILLER_159_403 VGND VPWR sky130_fd_sc_hd__decap_12
XFILLER_57_1086 VGND VPWR sky130_fd_sc_hd__decap_12
XFILLER_42_751 VGND VPWR sky130_fd_sc_hd__decap_12
XPHY_3495 VGND VPWR sky130_fd_sc_hd__tapvpwrvgnd_1
XFILLER_144_1056 VGND VPWR sky130_fd_sc_hd__decap_12
XPHY_2772 VGND VPWR sky130_fd_sc_hd__tapvpwrvgnd_1
XPHY_2761 VGND VPWR sky130_fd_sc_hd__tapvpwrvgnd_1
XPHY_2750 VGND VPWR sky130_fd_sc_hd__tapvpwrvgnd_1
XFILLER_186_288 VGND VPWR sky130_fd_sc_hd__decap_12
XPHY_2794 VGND VPWR sky130_fd_sc_hd__tapvpwrvgnd_1
XFILLER_128_812 VGND VPWR sky130_fd_sc_hd__decap_12
XPHY_2783 VGND VPWR sky130_fd_sc_hd__tapvpwrvgnd_1
XFILLER_183_940 VGND VPWR sky130_fd_sc_hd__decap_12
XFILLER_139_171 VGND VPWR sky130_fd_sc_hd__decap_12
XFILLER_154_130 VGND VPWR sky130_fd_sc_hd__decap_12
XFILLER_182_483 VGND VPWR sky130_fd_sc_hd__decap_12
XFILLER_170_678 VGND VPWR sky130_fd_sc_hd__decap_12
XFILLER_5_184 VGND VPWR sky130_fd_sc_hd__decap_12
XFILLER_29_1111 VGND VPWR sky130_fd_sc_hd__decap_12
XFILLER_190_1032 VGND VPWR sky130_fd_sc_hd__decap_12
XFILLER_123_550 VGND VPWR sky130_fd_sc_hd__decap_12
XFILLER_151_1038 VGND VPWR sky130_fd_sc_hd__decap_12
XFILLER_111_745 VGND VPWR sky130_fd_sc_hd__decap_12
XFILLER_96_434 VGND VPWR sky130_fd_sc_hd__decap_12
XFILLER_78_80 VGND VPWR sky130_fd_sc_hd__decap_12
XFILLER_69_659 VGND VPWR sky130_fd_sc_hd__decap_12
XFILLER_84_629 VGND VPWR sky130_fd_sc_hd__decap_12
XFILLER_110_288 VGND VPWR sky130_fd_sc_hd__decap_12
XFILLER_37_501 VGND VPWR sky130_fd_sc_hd__decap_12
XFILLER_24_239 VGND VPWR sky130_fd_sc_hd__decap_12
XFILLER_60_581 VGND VPWR sky130_fd_sc_hd__decap_12
XFILLER_165_428 VGND VPWR sky130_fd_sc_hd__decap_12
XFILLER_20_434 VGND VPWR sky130_fd_sc_hd__decap_12
XFILLER_146_642 VGND VPWR sky130_fd_sc_hd__decap_12
XFILLER_118_300 VGND VPWR sky130_fd_sc_hd__decap_12
XFILLER_119_867 VGND VPWR sky130_fd_sc_hd__decap_12
XFILLER_174_995 VGND VPWR sky130_fd_sc_hd__decap_12
XFILLER_161_623 VGND VPWR sky130_fd_sc_hd__decap_12
XFILLER_134_837 VGND VPWR sky130_fd_sc_hd__decap_12
XFILLER_145_196 VGND VPWR sky130_fd_sc_hd__decap_12
XFILLER_160_166 VGND VPWR sky130_fd_sc_hd__decap_12
XFILLER_141_391 VGND VPWR sky130_fd_sc_hd__decap_12
XFILLER_59_147 VGND VPWR sky130_fd_sc_hd__decap_12
XFILLER_114_56 VGND VPWR sky130_fd_sc_hd__decap_12
XFILLER_87_489 VGND VPWR sky130_fd_sc_hd__decap_12
XFILLER_74_117 VGND VPWR sky130_fd_sc_hd__decap_12
XFILLER_167_1001 VGND VPWR sky130_fd_sc_hd__decap_12
XFILLER_74_27 VGND VPWR sky130_fd_sc_hd__decap_4
XFILLER_55_342 VGND VPWR sky130_fd_sc_hd__decap_12
XFILLER_28_556 VGND VPWR sky130_fd_sc_hd__decap_12
XFILLER_83_684 VGND VPWR sky130_fd_sc_hd__decap_12
XFILLER_70_312 VGND VPWR sky130_fd_sc_hd__decap_12
XFILLER_56_898 VGND VPWR sky130_fd_sc_hd__decap_12
XFILLER_130_44 VGND VPWR sky130_fd_sc_hd__decap_12
XPHY_702 VGND VPWR sky130_fd_sc_hd__tapvpwrvgnd_1
XFILLER_43_537 VGND VPWR sky130_fd_sc_hd__decap_12
XANTENNA_mem_right_track_8.sc_dff_compact_3_.sky130_fd_sc_hd__dfrbp_1_D mem_right_track_8.sc_dff_compact_2_.sky130_fd_sc_hd__dfrbp_1/Q
+ VGND VPWR sky130_fd_sc_hd__diode_2
XFILLER_90_15 VGND VPWR sky130_fd_sc_hd__decap_12
XPHY_2035 VGND VPWR sky130_fd_sc_hd__tapvpwrvgnd_1
XPHY_2024 VGND VPWR sky130_fd_sc_hd__tapvpwrvgnd_1
XPHY_2013 VGND VPWR sky130_fd_sc_hd__tapvpwrvgnd_1
XPHY_2002 VGND VPWR sky130_fd_sc_hd__tapvpwrvgnd_1
XFILLER_71_879 VGND VPWR sky130_fd_sc_hd__decap_12
XPHY_713 VGND VPWR sky130_fd_sc_hd__tapvpwrvgnd_1
XPHY_724 VGND VPWR sky130_fd_sc_hd__tapvpwrvgnd_1
XPHY_735 VGND VPWR sky130_fd_sc_hd__tapvpwrvgnd_1
XFILLER_24_751 VGND VPWR sky130_fd_sc_hd__decap_12
XFILLER_169_745 VGND VPWR sky130_fd_sc_hd__decap_12
XPHY_2068 VGND VPWR sky130_fd_sc_hd__tapvpwrvgnd_1
XPHY_2057 VGND VPWR sky130_fd_sc_hd__tapvpwrvgnd_1
XPHY_2046 VGND VPWR sky130_fd_sc_hd__tapvpwrvgnd_1
XPHY_746 VGND VPWR sky130_fd_sc_hd__tapvpwrvgnd_1
XPHY_757 VGND VPWR sky130_fd_sc_hd__tapvpwrvgnd_1
XPHY_768 VGND VPWR sky130_fd_sc_hd__tapvpwrvgnd_1
XPHY_1301 VGND VPWR sky130_fd_sc_hd__tapvpwrvgnd_1
XPHY_1312 VGND VPWR sky130_fd_sc_hd__tapvpwrvgnd_1
XPHY_1323 VGND VPWR sky130_fd_sc_hd__tapvpwrvgnd_1
XFILLER_184_715 VGND VPWR sky130_fd_sc_hd__decap_12
XFILLER_139_31 VGND VPWR sky130_fd_sc_hd__decap_12
XFILLER_135_3 VGND VPWR sky130_fd_sc_hd__decap_12
XPHY_2079 VGND VPWR sky130_fd_sc_hd__tapvpwrvgnd_1
XPHY_779 VGND VPWR sky130_fd_sc_hd__tapvpwrvgnd_1
XPHY_1334 VGND VPWR sky130_fd_sc_hd__tapvpwrvgnd_1
XPHY_1345 VGND VPWR sky130_fd_sc_hd__tapvpwrvgnd_1
XPHY_1356 VGND VPWR sky130_fd_sc_hd__tapvpwrvgnd_1
XFILLER_168_288 VGND VPWR sky130_fd_sc_hd__decap_12
XFILLER_165_940 VGND VPWR sky130_fd_sc_hd__decap_12
XPHY_1378 VGND VPWR sky130_fd_sc_hd__tapvpwrvgnd_1
XFILLER_11_489 VGND VPWR sky130_fd_sc_hd__decap_12
XFILLER_23_86 VGND VPWR sky130_fd_sc_hd__decap_12
XPHY_1367 VGND VPWR sky130_fd_sc_hd__tapvpwrvgnd_1
XPHY_1389 VGND VPWR sky130_fd_sc_hd__tapvpwrvgnd_1
XFILLER_183_269 VGND VPWR sky130_fd_sc_hd__decap_12
XFILLER_180_910 VGND VPWR sky130_fd_sc_hd__decap_12
XFILLER_178_1130 VGND VPWR sky130_fd_sc_hd__decap_8
XFILLER_139_86 VGND VPWR sky130_fd_sc_hd__decap_12
XFILLER_136_141 VGND VPWR sky130_fd_sc_hd__decap_12
XFILLER_87_1013 VGND VPWR sky130_fd_sc_hd__decap_12
XFILLER_164_483 VGND VPWR sky130_fd_sc_hd__decap_12
XFILLER_3_611 VGND VPWR sky130_fd_sc_hd__decap_12
XFILLER_48_1008 VGND VPWR sky130_fd_sc_hd__decap_12
XFILLER_152_678 VGND VPWR sky130_fd_sc_hd__decap_12
XFILLER_105_550 VGND VPWR sky130_fd_sc_hd__decap_12
XFILLER_2_154 VGND VPWR sky130_fd_sc_hd__decap_12
XFILLER_132_391 VGND VPWR sky130_fd_sc_hd__decap_6
XFILLER_120_520 VGND VPWR sky130_fd_sc_hd__decap_12
XFILLER_78_434 VGND VPWR sky130_fd_sc_hd__decap_12
XFILLER_171_62 VGND VPWR sky130_fd_sc_hd__decap_12
XFILLER_93_415 VGND VPWR sky130_fd_sc_hd__decap_12
XFILLER_66_629 VGND VPWR sky130_fd_sc_hd__decap_12
XFILLER_19_501 VGND VPWR sky130_fd_sc_hd__decap_12
XFILLER_150_1093 VGND VPWR sky130_fd_sc_hd__decap_12
XFILLER_185_1123 VGND VPWR sky130_fd_sc_hd__decap_12
XFILLER_59_1126 VGND VPWR sky130_fd_sc_hd__decap_12
XFILLER_111_1099 VGND VPWR sky130_fd_sc_hd__decap_12
XANTENNA_mem_left_track_9.sc_dff_compact_2_.sky130_fd_sc_hd__dfrbp_1_D mem_left_track_9.sc_dff_compact_1_.sky130_fd_sc_hd__dfrbp_1/Q
+ VGND VPWR sky130_fd_sc_hd__diode_2
XFILLER_64_93 VGND VPWR sky130_fd_sc_hd__decap_12
XFILLER_61_367 VGND VPWR sky130_fd_sc_hd__decap_12
XPHY_3292 VGND VPWR sky130_fd_sc_hd__tapvpwrvgnd_1
XPHY_3281 VGND VPWR sky130_fd_sc_hd__tapvpwrvgnd_1
XPHY_3270 VGND VPWR sky130_fd_sc_hd__tapvpwrvgnd_1
XFILLER_42_581 VGND VPWR sky130_fd_sc_hd__decap_12
XFILLER_187_586 VGND VPWR sky130_fd_sc_hd__decap_12
XPHY_2580 VGND VPWR sky130_fd_sc_hd__tapvpwrvgnd_1
XFILLER_147_428 VGND VPWR sky130_fd_sc_hd__decap_12
XPHY_2591 VGND VPWR sky130_fd_sc_hd__tapvpwrvgnd_1
XFILLER_30_776 VGND VPWR sky130_fd_sc_hd__decap_12
XFILLER_31_1001 VGND VPWR sky130_fd_sc_hd__decap_12
XFILLER_128_642 VGND VPWR sky130_fd_sc_hd__decap_12
XPHY_1890 VGND VPWR sky130_fd_sc_hd__tapvpwrvgnd_1
XFILLER_183_781 VGND VPWR sky130_fd_sc_hd__decap_12
XFILLER_156_995 VGND VPWR sky130_fd_sc_hd__decap_12
XFILLER_143_623 VGND VPWR sky130_fd_sc_hd__decap_12
XFILLER_116_837 VGND VPWR sky130_fd_sc_hd__decap_12
XFILLER_6_471 VGND VPWR sky130_fd_sc_hd__decap_12
XFILLER_127_196 VGND VPWR sky130_fd_sc_hd__decap_12
XFILLER_50_3 VGND VPWR sky130_fd_sc_hd__decap_12
XFILLER_142_166 VGND VPWR sky130_fd_sc_hd__decap_12
XFILLER_131_818 VGND VPWR sky130_fd_sc_hd__decap_12
XFILLER_9_1013 VGND VPWR sky130_fd_sc_hd__decap_12
XFILLER_123_391 VGND VPWR sky130_fd_sc_hd__decap_12
XFILLER_85_916 VGND VPWR sky130_fd_sc_hd__decap_12
XANTENNA_clkbuf_2_1_0_prog_clk_A clkbuf_2_1_0_prog_clk/A VGND VPWR sky130_fd_sc_hd__diode_2
XFILLER_111_586 VGND VPWR sky130_fd_sc_hd__decap_12
XFILLER_69_489 VGND VPWR sky130_fd_sc_hd__decap_12
XFILLER_56_117 VGND VPWR sky130_fd_sc_hd__decap_12
XFILLER_42_1130 VGND VPWR sky130_fd_sc_hd__decap_8
XFILLER_84_459 VGND VPWR sky130_fd_sc_hd__decap_12
XFILLER_37_342 VGND VPWR sky130_fd_sc_hd__decap_12
XFILLER_65_684 VGND VPWR sky130_fd_sc_hd__decap_12
XFILLER_38_898 VGND VPWR sky130_fd_sc_hd__decap_12
XFILLER_25_537 VGND VPWR sky130_fd_sc_hd__decap_12
XFILLER_52_312 VGND VPWR sky130_fd_sc_hd__decap_12
XFILLER_80_654 VGND VPWR sky130_fd_sc_hd__decap_12
XFILLER_53_879 VGND VPWR sky130_fd_sc_hd__decap_12
XFILLER_40_507 VGND VPWR sky130_fd_sc_hd__decap_12
XFILLER_178_520 VGND VPWR sky130_fd_sc_hd__decap_12
XFILLER_166_715 VGND VPWR sky130_fd_sc_hd__decap_12
XFILLER_127_1062 VGND VPWR sky130_fd_sc_hd__decap_12
Xmem_right_track_0.sc_dff_compact_5_.sky130_fd_sc_hd__dfrbp_1 mem_right_track_0.sc_dff_compact_4_.sky130_fd_sc_hd__dfrbp_1/Q
+ mem_right_track_0.sc_dff_compact_5_.sky130_fd_sc_hd__dfrbp_1/Q mem_right_track_0.sc_dff_compact_5_.sky130_fd_sc_hd__dfrbp_1/Q_N
+ pReset clkbuf_2_3_0_prog_clk/X VGND VPWR sky130_fd_sc_hd__dfrbp_1
XFILLER_147_940 VGND VPWR sky130_fd_sc_hd__decap_12
XFILLER_165_269 VGND VPWR sky130_fd_sc_hd__decap_12
XFILLER_118_141 VGND VPWR sky130_fd_sc_hd__decap_12
XFILLER_180_239 VGND VPWR sky130_fd_sc_hd__decap_12
XFILLER_162_910 VGND VPWR sky130_fd_sc_hd__decap_12
XFILLER_146_483 VGND VPWR sky130_fd_sc_hd__decap_12
XFILLER_69_27 VGND VPWR sky130_fd_sc_hd__decap_12
XFILLER_161_464 VGND VPWR sky130_fd_sc_hd__decap_12
XFILLER_134_678 VGND VPWR sky130_fd_sc_hd__decap_12
XFILLER_121_306 VGND VPWR sky130_fd_sc_hd__decap_12
XFILLER_102_520 VGND VPWR sky130_fd_sc_hd__decap_12
XFILLER_87_220 VGND VPWR sky130_fd_sc_hd__decap_12
XFILLER_0_614 VGND VPWR sky130_fd_sc_hd__decap_6
XFILLER_47_1074 VGND VPWR sky130_fd_sc_hd__decap_12
XFILLER_134_1044 VGND VPWR sky130_fd_sc_hd__decap_12
XFILLER_130_873 VGND VPWR sky130_fd_sc_hd__decap_12
XFILLER_88_776 VGND VPWR sky130_fd_sc_hd__decap_12
XFILLER_85_15 VGND VPWR sky130_fd_sc_hd__decap_12
XFILLER_85_59 VGND VPWR sky130_fd_sc_hd__fill_2
XFILLER_75_415 VGND VPWR sky130_fd_sc_hd__decap_12
XFILLER_48_629 VGND VPWR sky130_fd_sc_hd__decap_12
XFILLER_84_971 VGND VPWR sky130_fd_sc_hd__decap_12
XFILLER_189_818 VGND VPWR sky130_fd_sc_hd__decap_12
XFILLER_141_98 VGND VPWR sky130_fd_sc_hd__decap_12
XFILLER_93_1050 VGND VPWR sky130_fd_sc_hd__decap_12
XPHY_510 VGND VPWR sky130_fd_sc_hd__tapvpwrvgnd_1
XFILLER_43_367 VGND VPWR sky130_fd_sc_hd__decap_12
XFILLER_180_1020 VGND VPWR sky130_fd_sc_hd__decap_12
XPHY_532 VGND VPWR sky130_fd_sc_hd__tapvpwrvgnd_1
XPHY_543 VGND VPWR sky130_fd_sc_hd__tapvpwrvgnd_1
XPHY_521 VGND VPWR sky130_fd_sc_hd__tapvpwrvgnd_1
XFILLER_24_581 VGND VPWR sky130_fd_sc_hd__decap_12
XFILLER_169_586 VGND VPWR sky130_fd_sc_hd__decap_12
Xmem_top_track_16.sc_dff_compact_0_.sky130_fd_sc_hd__dfrbp_1 mem_top_track_16.sc_dff_compact_0_.sky130_fd_sc_hd__dfrbp_1/D
+ mem_top_track_16.sc_dff_compact_0_.sky130_fd_sc_hd__dfrbp_1/Q mem_top_track_16.sc_dff_compact_0_.sky130_fd_sc_hd__dfrbp_1/Q_N
+ pReset clkbuf_2_1_0_prog_clk/X VGND VPWR sky130_fd_sc_hd__dfrbp_1
XFILLER_54_1056 VGND VPWR sky130_fd_sc_hd__decap_12
XFILLER_11_220 VGND VPWR sky130_fd_sc_hd__decap_12
XPHY_587 VGND VPWR sky130_fd_sc_hd__tapvpwrvgnd_1
XPHY_576 VGND VPWR sky130_fd_sc_hd__tapvpwrvgnd_1
XPHY_565 VGND VPWR sky130_fd_sc_hd__tapvpwrvgnd_1
XFILLER_8_703 VGND VPWR sky130_fd_sc_hd__decap_12
XPHY_554 VGND VPWR sky130_fd_sc_hd__tapvpwrvgnd_1
XPHY_1120 VGND VPWR sky130_fd_sc_hd__tapvpwrvgnd_1
XPHY_1131 VGND VPWR sky130_fd_sc_hd__tapvpwrvgnd_1
XFILLER_129_428 VGND VPWR sky130_fd_sc_hd__decap_12
XFILLER_12_776 VGND VPWR sky130_fd_sc_hd__decap_12
XPHY_598 VGND VPWR sky130_fd_sc_hd__tapvpwrvgnd_1
XPHY_1153 VGND VPWR sky130_fd_sc_hd__tapvpwrvgnd_1
XPHY_1142 VGND VPWR sky130_fd_sc_hd__tapvpwrvgnd_1
XPHY_1164 VGND VPWR sky130_fd_sc_hd__tapvpwrvgnd_1
XPHY_1175 VGND VPWR sky130_fd_sc_hd__tapvpwrvgnd_1
XFILLER_184_556 VGND VPWR sky130_fd_sc_hd__decap_12
XFILLER_7_257 VGND VPWR sky130_fd_sc_hd__decap_12
XPHY_1186 VGND VPWR sky130_fd_sc_hd__tapvpwrvgnd_1
XPHY_1197 VGND VPWR sky130_fd_sc_hd__tapvpwrvgnd_1
XFILLER_165_781 VGND VPWR sky130_fd_sc_hd__decap_12
XFILLER_138_995 VGND VPWR sky130_fd_sc_hd__decap_12
XFILLER_125_623 VGND VPWR sky130_fd_sc_hd__decap_12
XFILLER_180_751 VGND VPWR sky130_fd_sc_hd__decap_12
XFILLER_166_84 VGND VPWR sky130_fd_sc_hd__fill_2
XFILLER_109_196 VGND VPWR sky130_fd_sc_hd__decap_12
XFILLER_124_166 VGND VPWR sky130_fd_sc_hd__decap_12
XFILLER_113_818 VGND VPWR sky130_fd_sc_hd__decap_12
XFILLER_98_507 VGND VPWR sky130_fd_sc_hd__decap_12
XFILLER_3_452 VGND VPWR sky130_fd_sc_hd__decap_12
XFILLER_105_391 VGND VPWR sky130_fd_sc_hd__decap_12
XFILLER_67_916 VGND VPWR sky130_fd_sc_hd__decap_12
XFILLER_61_1038 VGND VPWR sky130_fd_sc_hd__decap_12
XFILLER_120_361 VGND VPWR sky130_fd_sc_hd__decap_12
XFILLER_38_117 VGND VPWR sky130_fd_sc_hd__decap_12
XFILLER_93_245 VGND VPWR sky130_fd_sc_hd__decap_12
XFILLER_66_459 VGND VPWR sky130_fd_sc_hd__decap_12
XFILLER_19_342 VGND VPWR sky130_fd_sc_hd__decap_12
XFILLER_47_684 VGND VPWR sky130_fd_sc_hd__decap_12
XFILLER_34_312 VGND VPWR sky130_fd_sc_hd__decap_12
XFILLER_179_306 VGND VPWR sky130_fd_sc_hd__decap_12
XANTENNA_mem_top_track_14.sc_dff_compact_1_.sky130_fd_sc_hd__dfrbp_1_CLK clkbuf_2_0_0_prog_clk/X
+ VGND VPWR sky130_fd_sc_hd__diode_2
XFILLER_62_654 VGND VPWR sky130_fd_sc_hd__decap_12
XFILLER_22_507 VGND VPWR sky130_fd_sc_hd__decap_12
XFILLER_35_879 VGND VPWR sky130_fd_sc_hd__decap_12
XFILLER_98_3 VGND VPWR sky130_fd_sc_hd__decap_12
XFILLER_50_849 VGND VPWR sky130_fd_sc_hd__decap_12
XFILLER_188_873 VGND VPWR sky130_fd_sc_hd__decap_12
XFILLER_175_501 VGND VPWR sky130_fd_sc_hd__decap_12
XFILLER_148_715 VGND VPWR sky130_fd_sc_hd__decap_12
Xmem_top_track_2.sc_dff_compact_0_.sky130_fd_sc_hd__dfrbp_1 mem_top_track_0.sc_dff_compact_5_.sky130_fd_sc_hd__dfrbp_1/Q
+ mem_top_track_2.sc_dff_compact_0_.sky130_fd_sc_hd__dfrbp_1/Q mem_top_track_2.sc_dff_compact_0_.sky130_fd_sc_hd__dfrbp_1/Q_N
+ pReset clkbuf_2_1_0_prog_clk/X VGND VPWR sky130_fd_sc_hd__dfrbp_1
XFILLER_147_269 VGND VPWR sky130_fd_sc_hd__decap_12
XFILLER_129_940 VGND VPWR sky130_fd_sc_hd__decap_12
XFILLER_190_515 VGND VPWR sky130_fd_sc_hd__decap_4
XFILLER_144_910 VGND VPWR sky130_fd_sc_hd__decap_12
XFILLER_128_483 VGND VPWR sky130_fd_sc_hd__decap_12
XFILLER_162_239 VGND VPWR sky130_fd_sc_hd__decap_12
XFILLER_143_464 VGND VPWR sky130_fd_sc_hd__decap_12
XFILLER_116_678 VGND VPWR sky130_fd_sc_hd__decap_12
XFILLER_103_306 VGND VPWR sky130_fd_sc_hd__decap_12
XFILLER_157_1099 VGND VPWR sky130_fd_sc_hd__decap_12
XFILLER_131_659 VGND VPWR sky130_fd_sc_hd__decap_12
XFILLER_69_220 VGND VPWR sky130_fd_sc_hd__decap_12
XFILLER_97_562 VGND VPWR sky130_fd_sc_hd__decap_12
XFILLER_112_873 VGND VPWR sky130_fd_sc_hd__decap_12
XFILLER_57_415 VGND VPWR sky130_fd_sc_hd__decap_12
XFILLER_85_757 VGND VPWR sky130_fd_sc_hd__decap_12
XFILLER_77_1001 VGND VPWR sky130_fd_sc_hd__decap_12
XFILLER_66_971 VGND VPWR sky130_fd_sc_hd__decap_12
XFILLER_81_952 VGND VPWR sky130_fd_sc_hd__decap_12
XFILLER_129_1135 VGND VPWR sky130_fd_sc_hd__decap_4
XFILLER_25_367 VGND VPWR sky130_fd_sc_hd__decap_12
XFILLER_80_495 VGND VPWR sky130_fd_sc_hd__decap_12
XFILLER_178_361 VGND VPWR sky130_fd_sc_hd__decap_12
XFILLER_71_39 VGND VPWR sky130_fd_sc_hd__decap_12
XFILLER_40_337 VGND VPWR sky130_fd_sc_hd__decap_12
XFILLER_187_39 VGND VPWR sky130_fd_sc_hd__decap_12
XFILLER_21_562 VGND VPWR sky130_fd_sc_hd__decap_12
XFILLER_166_556 VGND VPWR sky130_fd_sc_hd__decap_12
XFILLER_181_537 VGND VPWR sky130_fd_sc_hd__decap_12
Xmem_right_track_16.sc_dff_compact_0_.sky130_fd_sc_hd__dfrbp_1 mem_right_track_8.sc_dff_compact_5_.sky130_fd_sc_hd__dfrbp_1/Q
+ mem_right_track_16.sc_dff_compact_0_.sky130_fd_sc_hd__dfrbp_1/Q mem_right_track_16.sc_dff_compact_0_.sky130_fd_sc_hd__dfrbp_1/Q_N
+ pReset clkbuf_2_3_0_prog_clk/X VGND VPWR sky130_fd_sc_hd__dfrbp_1
XFILLER_147_781 VGND VPWR sky130_fd_sc_hd__decap_12
XFILLER_140_1081 VGND VPWR sky130_fd_sc_hd__decap_12
XFILLER_107_623 VGND VPWR sky130_fd_sc_hd__decap_12
XFILLER_88_1130 VGND VPWR sky130_fd_sc_hd__decap_8
XFILLER_175_1111 VGND VPWR sky130_fd_sc_hd__decap_12
XFILLER_162_751 VGND VPWR sky130_fd_sc_hd__decap_12
XFILLER_4_227 VGND VPWR sky130_fd_sc_hd__decap_12
XFILLER_20_32 VGND VPWR sky130_fd_sc_hd__decap_12
XFILLER_136_32 VGND VPWR sky130_fd_sc_hd__decap_12
XFILLER_106_166 VGND VPWR sky130_fd_sc_hd__decap_12
XANTENNA_mem_top_track_16.sc_dff_compact_3_.sky130_fd_sc_hd__dfrbp_1_CLK clkbuf_2_3_0_prog_clk/X
+ VGND VPWR sky130_fd_sc_hd__diode_2
XFILLER_136_1117 VGND VPWR sky130_fd_sc_hd__decap_12
XFILLER_121_147 VGND VPWR sky130_fd_sc_hd__decap_12
XFILLER_49_916 VGND VPWR sky130_fd_sc_hd__decap_12
XFILLER_152_20 VGND VPWR sky130_fd_sc_hd__decap_3
XFILLER_102_361 VGND VPWR sky130_fd_sc_hd__decap_12
XFILLER_0_466 VGND VPWR sky130_fd_sc_hd__decap_12
XFILLER_1_989 VGND VPWR sky130_fd_sc_hd__decap_12
XFILLER_75_245 VGND VPWR sky130_fd_sc_hd__decap_12
XFILLER_29_74 VGND VPWR sky130_fd_sc_hd__decap_12
XFILLER_48_459 VGND VPWR sky130_fd_sc_hd__decap_12
XFILLER_60_1093 VGND VPWR sky130_fd_sc_hd__decap_12
XFILLER_95_1123 VGND VPWR sky130_fd_sc_hd__decap_12
XFILLER_90_215 VGND VPWR sky130_fd_sc_hd__decap_12
XFILLER_16_312 VGND VPWR sky130_fd_sc_hd__decap_12
XFILLER_29_684 VGND VPWR sky130_fd_sc_hd__decap_12
XFILLER_71_440 VGND VPWR sky130_fd_sc_hd__decap_12
XFILLER_17_879 VGND VPWR sky130_fd_sc_hd__decap_12
XFILLER_21_1099 VGND VPWR sky130_fd_sc_hd__decap_12
XFILLER_44_654 VGND VPWR sky130_fd_sc_hd__decap_12
XFILLER_45_51 VGND VPWR sky130_fd_sc_hd__decap_8
XFILLER_45_62 VGND VPWR sky130_fd_sc_hd__decap_12
XFILLER_189_659 VGND VPWR sky130_fd_sc_hd__decap_12
XFILLER_32_849 VGND VPWR sky130_fd_sc_hd__decap_12
XPHY_351 VGND VPWR sky130_fd_sc_hd__decap_3
XPHY_340 VGND VPWR sky130_fd_sc_hd__decap_3
XFILLER_157_501 VGND VPWR sky130_fd_sc_hd__decap_12
XPHY_384 VGND VPWR sky130_fd_sc_hd__decap_3
XPHY_373 VGND VPWR sky130_fd_sc_hd__decap_3
XPHY_362 VGND VPWR sky130_fd_sc_hd__decap_3
XPHY_395 VGND VPWR sky130_fd_sc_hd__tapvpwrvgnd_1
XFILLER_8_544 VGND VPWR sky130_fd_sc_hd__decap_12