* NGSPICE file created from cby_0__1_.ext - technology: sky130A

* Black-box entry subcircuit for sky130_fd_sc_hd__decap_12 abstract view
.subckt sky130_fd_sc_hd__decap_12 VGND VPWR
.ends

* Black-box entry subcircuit for sky130_fd_sc_hd__fill_2 abstract view
.subckt sky130_fd_sc_hd__fill_2 VGND VPWR
.ends

* Black-box entry subcircuit for sky130_fd_sc_hd__dfrbp_1 abstract view
.subckt sky130_fd_sc_hd__dfrbp_1 D Q Q_N RESET_B CLK VGND VPWR
.ends

* Black-box entry subcircuit for sky130_fd_sc_hd__diode_2 abstract view
.subckt sky130_fd_sc_hd__diode_2 DIODE VGND VPWR
.ends

* Black-box entry subcircuit for sky130_fd_sc_hd__fill_1 abstract view
.subckt sky130_fd_sc_hd__fill_1 VGND VPWR
.ends

* Black-box entry subcircuit for sky130_fd_sc_hd__tapvpwrvgnd_1 abstract view
.subckt sky130_fd_sc_hd__tapvpwrvgnd_1 VGND VPWR
.ends

* Black-box entry subcircuit for sky130_fd_sc_hd__decap_6 abstract view
.subckt sky130_fd_sc_hd__decap_6 VGND VPWR
.ends

* Black-box entry subcircuit for sky130_fd_sc_hd__decap_4 abstract view
.subckt sky130_fd_sc_hd__decap_4 VGND VPWR
.ends

* Black-box entry subcircuit for sky130_fd_sc_hd__decap_8 abstract view
.subckt sky130_fd_sc_hd__decap_8 VGND VPWR
.ends

* Black-box entry subcircuit for sky130_fd_sc_hd__decap_3 abstract view
.subckt sky130_fd_sc_hd__decap_3 VGND VPWR
.ends

* Black-box entry subcircuit for sky130_fd_sc_hd__clkbuf_1 abstract view
.subckt sky130_fd_sc_hd__clkbuf_1 A X VGND VPWR
.ends

* Black-box entry subcircuit for sky130_fd_sc_hd__buf_2 abstract view
.subckt sky130_fd_sc_hd__buf_2 A X VGND VPWR
.ends

* Black-box entry subcircuit for sky130_fd_sc_hd__conb_1 abstract view
.subckt sky130_fd_sc_hd__conb_1 HI LO VGND VPWR
.ends

* Black-box entry subcircuit for sky130_fd_sc_hd__clkbuf_16 abstract view
.subckt sky130_fd_sc_hd__clkbuf_16 A X VGND VPWR
.ends

.subckt cby_0__1_ ccff_head ccff_tail chany_bottom_in[0] chany_bottom_in[1] chany_bottom_in[2]
+ chany_bottom_in[3] chany_bottom_in[4] chany_bottom_in[5] chany_bottom_in[6] chany_bottom_in[7]
+ chany_bottom_in[8] chany_bottom_out[0] chany_bottom_out[1] chany_bottom_out[2] chany_bottom_out[3]
+ chany_bottom_out[4] chany_bottom_out[5] chany_bottom_out[6] chany_bottom_out[7]
+ chany_bottom_out[8] chany_top_in[0] chany_top_in[1] chany_top_in[2] chany_top_in[3]
+ chany_top_in[4] chany_top_in[5] chany_top_in[6] chany_top_in[7] chany_top_in[8]
+ chany_top_out[0] chany_top_out[1] chany_top_out[2] chany_top_out[3] chany_top_out[4]
+ chany_top_out[5] chany_top_out[6] chany_top_out[7] chany_top_out[8] left_grid_pin_0_
+ left_grid_pin_10_ left_grid_pin_12_ left_grid_pin_14_ left_grid_pin_2_ left_grid_pin_4_
+ left_grid_pin_6_ left_grid_pin_8_ pReset prog_clk right_grid_pin_3_ right_grid_pin_7_
+ VPWR VGND
XFILLER_22_122 VGND VPWR sky130_fd_sc_hd__decap_12
XFILLER_22_166 VGND VPWR sky130_fd_sc_hd__decap_12
XFILLER_7_7 VGND VPWR sky130_fd_sc_hd__fill_2
Xmem_right_ipin_7.sc_dff_compact_2_.sky130_fd_sc_hd__dfrbp_1 mem_right_ipin_7.sc_dff_compact_2_.sky130_fd_sc_hd__dfrbp_1/D
+ mem_right_ipin_7.sc_dff_compact_2_.sky130_fd_sc_hd__dfrbp_1/Q mem_right_ipin_7.sc_dff_compact_2_.sky130_fd_sc_hd__dfrbp_1/Q_N
+ pReset clkbuf_2_1_0_prog_clk/X VGND VPWR sky130_fd_sc_hd__dfrbp_1
XFILLER_5_354 VGND VPWR sky130_fd_sc_hd__decap_12
XFILLER_10_136 VGND VPWR sky130_fd_sc_hd__decap_12
XFILLER_12_32 VGND VPWR sky130_fd_sc_hd__fill_2
Xmem_right_ipin_4.sc_dff_compact_3_.sky130_fd_sc_hd__dfrbp_1 mem_right_ipin_4.sc_dff_compact_3_.sky130_fd_sc_hd__dfrbp_1/D
+ mem_right_ipin_4.sc_dff_compact_3_.sky130_fd_sc_hd__dfrbp_1/Q mem_right_ipin_4.sc_dff_compact_3_.sky130_fd_sc_hd__dfrbp_1/Q_N
+ pReset clkbuf_2_1_0_prog_clk/X VGND VPWR sky130_fd_sc_hd__dfrbp_1
XANTENNA_mem_right_ipin_7.sc_dff_compact_3_.sky130_fd_sc_hd__dfrbp_1_D mem_right_ipin_7.sc_dff_compact_2_.sky130_fd_sc_hd__dfrbp_1/Q
+ VGND VPWR sky130_fd_sc_hd__diode_2
XFILLER_5_184 VGND VPWR sky130_fd_sc_hd__fill_2
XFILLER_24_239 VGND VPWR sky130_fd_sc_hd__decap_12
Xmem_right_ipin_1.sc_dff_compact_4_.sky130_fd_sc_hd__dfrbp_1 mem_right_ipin_1.sc_dff_compact_4_.sky130_fd_sc_hd__dfrbp_1/D
+ mem_right_ipin_1.sc_dff_compact_5_.sky130_fd_sc_hd__dfrbp_1/D mem_right_ipin_1.sc_dff_compact_4_.sky130_fd_sc_hd__dfrbp_1/Q_N
+ pReset clkbuf_2_2_0_prog_clk/X VGND VPWR sky130_fd_sc_hd__dfrbp_1
XFILLER_23_86 VGND VPWR sky130_fd_sc_hd__decap_12
XFILLER_2_154 VGND VPWR sky130_fd_sc_hd__decap_12
XFILLER_0_13 VGND VPWR sky130_fd_sc_hd__fill_2
XFILLER_17_9 VGND VPWR sky130_fd_sc_hd__fill_1
XFILLER_9_11 VGND VPWR sky130_fd_sc_hd__fill_1
XFILLER_9_99 VGND VPWR sky130_fd_sc_hd__decap_12
XANTENNA_clkbuf_2_1_0_prog_clk_A clkbuf_0_prog_clk/X VGND VPWR sky130_fd_sc_hd__diode_2
XFILLER_20_231 VGND VPWR sky130_fd_sc_hd__fill_2
XFILLER_18_20 VGND VPWR sky130_fd_sc_hd__fill_1
XFILLER_18_64 VGND VPWR sky130_fd_sc_hd__decap_12
XFILLER_11_286 VGND VPWR sky130_fd_sc_hd__decap_12
XFILLER_19_342 VGND VPWR sky130_fd_sc_hd__decap_12
XFILLER_25_323 VGND VPWR sky130_fd_sc_hd__decap_12
XFILLER_4_227 VGND VPWR sky130_fd_sc_hd__decap_12
XFILLER_20_32 VGND VPWR sky130_fd_sc_hd__fill_2
XFILLER_20_87 VGND VPWR sky130_fd_sc_hd__fill_1
XFILLER_16_312 VGND VPWR sky130_fd_sc_hd__decap_12
XFILLER_3_293 VGND VPWR sky130_fd_sc_hd__decap_12
XFILLER_13_3 VGND VPWR sky130_fd_sc_hd__fill_2
XFILLER_19_150 VGND VPWR sky130_fd_sc_hd__fill_2
XFILLER_22_337 VGND VPWR sky130_fd_sc_hd__decap_12
XFILLER_1_208 VGND VPWR sky130_fd_sc_hd__decap_12
XFILLER_13_304 VGND VPWR sky130_fd_sc_hd__fill_1
XFILLER_15_21 VGND VPWR sky130_fd_sc_hd__fill_1
XPHY_170 VGND VPWR sky130_fd_sc_hd__tapvpwrvgnd_1
XFILLER_8_385 VGND VPWR sky130_fd_sc_hd__fill_2
XPHY_181 VGND VPWR sky130_fd_sc_hd__tapvpwrvgnd_1
XPHY_192 VGND VPWR sky130_fd_sc_hd__tapvpwrvgnd_1
XFILLER_22_134 VGND VPWR sky130_fd_sc_hd__decap_12
XFILLER_22_178 VGND VPWR sky130_fd_sc_hd__decap_12
XFILLER_13_123 VGND VPWR sky130_fd_sc_hd__decap_6
XFILLER_10_148 VGND VPWR sky130_fd_sc_hd__decap_4
XFILLER_2_325 VGND VPWR sky130_fd_sc_hd__decap_8
XFILLER_18_215 VGND VPWR sky130_fd_sc_hd__decap_12
XFILLER_5_196 VGND VPWR sky130_fd_sc_hd__fill_1
XFILLER_17_281 VGND VPWR sky130_fd_sc_hd__decap_12
XFILLER_23_284 VGND VPWR sky130_fd_sc_hd__decap_12
XFILLER_23_98 VGND VPWR sky130_fd_sc_hd__decap_12
XFILLER_2_166 VGND VPWR sky130_fd_sc_hd__decap_12
XANTENNA_mem_right_ipin_0.sc_dff_compact_4_.sky130_fd_sc_hd__dfrbp_1_RESET_B pReset
+ VGND VPWR sky130_fd_sc_hd__diode_2
XFILLER_20_276 VGND VPWR sky130_fd_sc_hd__decap_12
XANTENNA_mem_right_ipin_2.sc_dff_compact_5_.sky130_fd_sc_hd__dfrbp_1_RESET_B pReset
+ VGND VPWR sky130_fd_sc_hd__diode_2
XFILLER_18_32 VGND VPWR sky130_fd_sc_hd__fill_2
XFILLER_18_76 VGND VPWR sky130_fd_sc_hd__decap_12
XFILLER_7_236 VGND VPWR sky130_fd_sc_hd__decap_4
XFILLER_11_243 VGND VPWR sky130_fd_sc_hd__fill_1
XFILLER_11_298 VGND VPWR sky130_fd_sc_hd__decap_6
XFILLER_7_258 VGND VPWR sky130_fd_sc_hd__fill_2
XFILLER_19_354 VGND VPWR sky130_fd_sc_hd__decap_12
XFILLER_25_335 VGND VPWR sky130_fd_sc_hd__decap_6
XFILLER_4_239 VGND VPWR sky130_fd_sc_hd__decap_12
XFILLER_16_324 VGND VPWR sky130_fd_sc_hd__decap_12
XFILLER_19_184 VGND VPWR sky130_fd_sc_hd__decap_4
XFILLER_22_349 VGND VPWR sky130_fd_sc_hd__decap_12
XFILLER_25_187 VGND VPWR sky130_fd_sc_hd__decap_12
XFILLER_16_154 VGND VPWR sky130_fd_sc_hd__fill_2
XPHY_160 VGND VPWR sky130_fd_sc_hd__tapvpwrvgnd_1
XPHY_171 VGND VPWR sky130_fd_sc_hd__tapvpwrvgnd_1
XPHY_182 VGND VPWR sky130_fd_sc_hd__tapvpwrvgnd_1
XPHY_193 VGND VPWR sky130_fd_sc_hd__tapvpwrvgnd_1
XFILLER_10_308 VGND VPWR sky130_fd_sc_hd__decap_12
XFILLER_22_146 VGND VPWR sky130_fd_sc_hd__decap_6
XFILLER_13_179 VGND VPWR sky130_fd_sc_hd__decap_4
XFILLER_5_367 VGND VPWR sky130_fd_sc_hd__decap_12
XFILLER_5_301 VGND VPWR sky130_fd_sc_hd__decap_4
XANTENNA_mem_right_ipin_0.sc_dff_compact_4_.sky130_fd_sc_hd__dfrbp_1_CLK clkbuf_2_2_0_prog_clk/X
+ VGND VPWR sky130_fd_sc_hd__diode_2
XANTENNA_mem_right_ipin_1.sc_dff_compact_5_.sky130_fd_sc_hd__dfrbp_1_CLK clkbuf_2_2_0_prog_clk/X
+ VGND VPWR sky130_fd_sc_hd__diode_2
XFILLER_10_105 VGND VPWR sky130_fd_sc_hd__decap_12
XFILLER_12_89 VGND VPWR sky130_fd_sc_hd__decap_3
XFILLER_2_337 VGND VPWR sky130_fd_sc_hd__decap_12
XFILLER_18_227 VGND VPWR sky130_fd_sc_hd__decap_12
Xmem_right_ipin_6.sc_dff_compact_1_.sky130_fd_sc_hd__dfrbp_1 mem_right_ipin_6.sc_dff_compact_0_.sky130_fd_sc_hd__dfrbp_1/Q
+ mem_right_ipin_6.sc_dff_compact_2_.sky130_fd_sc_hd__dfrbp_1/D mem_right_ipin_6.sc_dff_compact_1_.sky130_fd_sc_hd__dfrbp_1/Q_N
+ pReset clkbuf_2_3_0_prog_clk/X VGND VPWR sky130_fd_sc_hd__dfrbp_1
XFILLER_17_293 VGND VPWR sky130_fd_sc_hd__decap_12
XFILLER_15_208 VGND VPWR sky130_fd_sc_hd__decap_12
Xmem_left_ipin_0.sc_dff_compact_2_.sky130_fd_sc_hd__dfrbp_1 mem_left_ipin_0.sc_dff_compact_2_.sky130_fd_sc_hd__dfrbp_1/D
+ mem_left_ipin_0.sc_dff_compact_2_.sky130_fd_sc_hd__dfrbp_1/Q mem_left_ipin_0.sc_dff_compact_2_.sky130_fd_sc_hd__dfrbp_1/Q_N
+ pReset clkbuf_2_0_0_prog_clk/X VGND VPWR sky130_fd_sc_hd__dfrbp_1
XFILLER_23_11 VGND VPWR sky130_fd_sc_hd__fill_2
XFILLER_23_296 VGND VPWR sky130_fd_sc_hd__decap_8
XFILLER_3_3 VGND VPWR sky130_fd_sc_hd__fill_2
XFILLER_2_178 VGND VPWR sky130_fd_sc_hd__decap_12
Xmem_right_ipin_3.sc_dff_compact_2_.sky130_fd_sc_hd__dfrbp_1 mem_right_ipin_3.sc_dff_compact_1_.sky130_fd_sc_hd__dfrbp_1/Q
+ mem_right_ipin_3.sc_dff_compact_2_.sky130_fd_sc_hd__dfrbp_1/Q mem_right_ipin_3.sc_dff_compact_2_.sky130_fd_sc_hd__dfrbp_1/Q_N
+ pReset clkbuf_2_2_0_prog_clk/X VGND VPWR sky130_fd_sc_hd__dfrbp_1
XFILLER_20_288 VGND VPWR sky130_fd_sc_hd__decap_12
XFILLER_18_11 VGND VPWR sky130_fd_sc_hd__decap_3
XFILLER_18_88 VGND VPWR sky130_fd_sc_hd__decap_4
XFILLER_7_204 VGND VPWR sky130_fd_sc_hd__fill_1
XFILLER_11_211 VGND VPWR sky130_fd_sc_hd__fill_2
Xmem_right_ipin_0.sc_dff_compact_3_.sky130_fd_sc_hd__dfrbp_1 mem_right_ipin_0.sc_dff_compact_2_.sky130_fd_sc_hd__dfrbp_1/Q
+ mem_right_ipin_0.sc_dff_compact_4_.sky130_fd_sc_hd__dfrbp_1/D mem_right_ipin_0.sc_dff_compact_3_.sky130_fd_sc_hd__dfrbp_1/Q_N
+ pReset clkbuf_2_2_0_prog_clk/X VGND VPWR sky130_fd_sc_hd__dfrbp_1
XFILLER_6_270 VGND VPWR sky130_fd_sc_hd__decap_4
XFILLER_4_207 VGND VPWR sky130_fd_sc_hd__decap_6
XFILLER_20_23 VGND VPWR sky130_fd_sc_hd__decap_8
XFILLER_6_36 VGND VPWR sky130_fd_sc_hd__decap_12
XFILLER_13_306 VGND VPWR sky130_fd_sc_hd__decap_12
XFILLER_15_89 VGND VPWR sky130_fd_sc_hd__decap_12
XFILLER_25_199 VGND VPWR sky130_fd_sc_hd__decap_12
XFILLER_0_298 VGND VPWR sky130_fd_sc_hd__decap_12
XFILLER_12_361 VGND VPWR sky130_fd_sc_hd__decap_12
XPHY_150 VGND VPWR sky130_fd_sc_hd__tapvpwrvgnd_1
XPHY_161 VGND VPWR sky130_fd_sc_hd__tapvpwrvgnd_1
XPHY_172 VGND VPWR sky130_fd_sc_hd__tapvpwrvgnd_1
XPHY_183 VGND VPWR sky130_fd_sc_hd__tapvpwrvgnd_1
XPHY_194 VGND VPWR sky130_fd_sc_hd__tapvpwrvgnd_1
Xclkbuf_2_1_0_prog_clk clkbuf_0_prog_clk/X clkbuf_2_1_0_prog_clk/X VGND VPWR sky130_fd_sc_hd__clkbuf_1
XFILLER_9_129 VGND VPWR sky130_fd_sc_hd__fill_1
XFILLER_13_103 VGND VPWR sky130_fd_sc_hd__decap_12
XFILLER_5_379 VGND VPWR sky130_fd_sc_hd__decap_8
XFILLER_12_191 VGND VPWR sky130_fd_sc_hd__decap_12
XFILLER_10_117 VGND VPWR sky130_fd_sc_hd__decap_12
XFILLER_12_13 VGND VPWR sky130_fd_sc_hd__decap_4
XFILLER_12_24 VGND VPWR sky130_fd_sc_hd__decap_6
XFILLER_12_57 VGND VPWR sky130_fd_sc_hd__decap_12
XFILLER_2_349 VGND VPWR sky130_fd_sc_hd__decap_12
XFILLER_18_239 VGND VPWR sky130_fd_sc_hd__decap_12
XFILLER_5_110 VGND VPWR sky130_fd_sc_hd__decap_12
XANTENNA_mem_right_ipin_1.sc_dff_compact_5_.sky130_fd_sc_hd__dfrbp_1_RESET_B pReset
+ VGND VPWR sky130_fd_sc_hd__diode_2
XFILLER_4_80 VGND VPWR sky130_fd_sc_hd__decap_12
XFILLER_23_220 VGND VPWR sky130_fd_sc_hd__decap_12
XANTENNA__12__A chany_top_in[6] VGND VPWR sky130_fd_sc_hd__diode_2
XFILLER_0_38 VGND VPWR sky130_fd_sc_hd__fill_2
XFILLER_9_14 VGND VPWR sky130_fd_sc_hd__fill_2
XFILLER_9_47 VGND VPWR sky130_fd_sc_hd__fill_2
XFILLER_20_256 VGND VPWR sky130_fd_sc_hd__fill_2
XFILLER_18_23 VGND VPWR sky130_fd_sc_hd__decap_8
XFILLER_7_249 VGND VPWR sky130_fd_sc_hd__fill_2
XFILLER_11_245 VGND VPWR sky130_fd_sc_hd__decap_4
XANTENNA_mem_right_ipin_4.sc_dff_compact_0_.sky130_fd_sc_hd__dfrbp_1_CLK clkbuf_2_0_0_prog_clk/X
+ VGND VPWR sky130_fd_sc_hd__diode_2
XFILLER_19_301 VGND VPWR sky130_fd_sc_hd__decap_4
XFILLER_19_367 VGND VPWR sky130_fd_sc_hd__decap_12
XANTENNA_mem_right_ipin_5.sc_dff_compact_1_.sky130_fd_sc_hd__dfrbp_1_CLK clkbuf_2_1_0_prog_clk/X
+ VGND VPWR sky130_fd_sc_hd__diode_2
XFILLER_25_304 VGND VPWR sky130_fd_sc_hd__decap_6
XANTENNA_mem_right_ipin_6.sc_dff_compact_2_.sky130_fd_sc_hd__dfrbp_1_CLK clkbuf_2_3_0_prog_clk/X
+ VGND VPWR sky130_fd_sc_hd__diode_2
XFILLER_20_57 VGND VPWR sky130_fd_sc_hd__decap_12
XFILLER_16_337 VGND VPWR sky130_fd_sc_hd__decap_12
XANTENNA_mem_right_ipin_7.sc_dff_compact_3_.sky130_fd_sc_hd__dfrbp_1_CLK clkbuf_2_1_0_prog_clk/X
+ VGND VPWR sky130_fd_sc_hd__diode_2
XFILLER_6_48 VGND VPWR sky130_fd_sc_hd__decap_12
XFILLER_6_15 VGND VPWR sky130_fd_sc_hd__decap_12
XFILLER_10_90 VGND VPWR sky130_fd_sc_hd__fill_2
XFILLER_19_120 VGND VPWR sky130_fd_sc_hd__fill_2
XFILLER_19_175 VGND VPWR sky130_fd_sc_hd__fill_2
XFILLER_13_318 VGND VPWR sky130_fd_sc_hd__decap_12
XFILLER_15_24 VGND VPWR sky130_fd_sc_hd__fill_2
XFILLER_25_156 VGND VPWR sky130_fd_sc_hd__decap_12
XANTENNA__20__A chany_bottom_in[7] VGND VPWR sky130_fd_sc_hd__diode_2
XFILLER_0_288 VGND VPWR sky130_fd_sc_hd__fill_2
XFILLER_0_266 VGND VPWR sky130_fd_sc_hd__decap_12
XFILLER_16_145 VGND VPWR sky130_fd_sc_hd__decap_8
XFILLER_8_300 VGND VPWR sky130_fd_sc_hd__decap_12
XFILLER_12_373 VGND VPWR sky130_fd_sc_hd__decap_12
XPHY_140 VGND VPWR sky130_fd_sc_hd__tapvpwrvgnd_1
XPHY_151 VGND VPWR sky130_fd_sc_hd__tapvpwrvgnd_1
XPHY_162 VGND VPWR sky130_fd_sc_hd__tapvpwrvgnd_1
XPHY_173 VGND VPWR sky130_fd_sc_hd__tapvpwrvgnd_1
XPHY_184 VGND VPWR sky130_fd_sc_hd__tapvpwrvgnd_1
XPHY_195 VGND VPWR sky130_fd_sc_hd__tapvpwrvgnd_1
XFILLER_11_3 VGND VPWR sky130_fd_sc_hd__decap_4
XANTENNA_mem_left_ipin_0.sc_dff_compact_3_.sky130_fd_sc_hd__dfrbp_1_CLK clkbuf_2_0_0_prog_clk/X
+ VGND VPWR sky130_fd_sc_hd__diode_2
XFILLER_13_115 VGND VPWR sky130_fd_sc_hd__decap_6
XANTENNA__15__A chany_top_in[3] VGND VPWR sky130_fd_sc_hd__diode_2
XFILLER_9_119 VGND VPWR sky130_fd_sc_hd__decap_3
XFILLER_8_152 VGND VPWR sky130_fd_sc_hd__fill_1
XFILLER_10_129 VGND VPWR sky130_fd_sc_hd__decap_4
Xmem_right_ipin_7.sc_dff_compact_5_.sky130_fd_sc_hd__dfrbp_1 mem_right_ipin_7.sc_dff_compact_5_.sky130_fd_sc_hd__dfrbp_1/D
+ ccff_tail mem_right_ipin_7.sc_dff_compact_5_.sky130_fd_sc_hd__dfrbp_1/Q_N pReset
+ clkbuf_2_1_0_prog_clk/X VGND VPWR sky130_fd_sc_hd__dfrbp_1
XFILLER_5_8 VGND VPWR sky130_fd_sc_hd__fill_2
XFILLER_2_306 VGND VPWR sky130_fd_sc_hd__fill_1
XFILLER_12_69 VGND VPWR sky130_fd_sc_hd__decap_12
XFILLER_5_199 VGND VPWR sky130_fd_sc_hd__fill_2
XFILLER_5_188 VGND VPWR sky130_fd_sc_hd__fill_2
XFILLER_1_361 VGND VPWR sky130_fd_sc_hd__decap_4
XFILLER_23_232 VGND VPWR sky130_fd_sc_hd__decap_12
XFILLER_9_59 VGND VPWR sky130_fd_sc_hd__fill_2
XFILLER_14_243 VGND VPWR sky130_fd_sc_hd__fill_1
XFILLER_14_276 VGND VPWR sky130_fd_sc_hd__fill_2
Xmem_right_ipin_5.sc_dff_compact_0_.sky130_fd_sc_hd__dfrbp_1 mem_right_ipin_4.sc_dff_compact_5_.sky130_fd_sc_hd__dfrbp_1/Q
+ mem_right_ipin_5.sc_dff_compact_0_.sky130_fd_sc_hd__dfrbp_1/Q mem_right_ipin_5.sc_dff_compact_0_.sky130_fd_sc_hd__dfrbp_1/Q_N
+ pReset clkbuf_2_1_0_prog_clk/X VGND VPWR sky130_fd_sc_hd__dfrbp_1
XFILLER_20_213 VGND VPWR sky130_fd_sc_hd__fill_1
XFILLER_20_268 VGND VPWR sky130_fd_sc_hd__decap_6
XFILLER_11_257 VGND VPWR sky130_fd_sc_hd__fill_2
XANTENNA__23__A chany_bottom_in[4] VGND VPWR sky130_fd_sc_hd__diode_2
XFILLER_19_379 VGND VPWR sky130_fd_sc_hd__decap_8
XFILLER_1_60 VGND VPWR sky130_fd_sc_hd__fill_1
Xmem_right_ipin_2.sc_dff_compact_1_.sky130_fd_sc_hd__dfrbp_1 mem_right_ipin_2.sc_dff_compact_0_.sky130_fd_sc_hd__dfrbp_1/Q
+ mem_right_ipin_2.sc_dff_compact_1_.sky130_fd_sc_hd__dfrbp_1/Q mem_right_ipin_2.sc_dff_compact_1_.sky130_fd_sc_hd__dfrbp_1/Q_N
+ pReset clkbuf_2_2_0_prog_clk/X VGND VPWR sky130_fd_sc_hd__dfrbp_1
XFILLER_20_69 VGND VPWR sky130_fd_sc_hd__decap_12
XANTENNA__18__A chany_top_in[0] VGND VPWR sky130_fd_sc_hd__diode_2
XFILLER_16_349 VGND VPWR sky130_fd_sc_hd__decap_12
XFILLER_6_27 VGND VPWR sky130_fd_sc_hd__decap_4
XFILLER_3_220 VGND VPWR sky130_fd_sc_hd__decap_12
XFILLER_19_143 VGND VPWR sky130_fd_sc_hd__fill_1
XANTENNA_mem_left_ipin_0.sc_dff_compact_1_.sky130_fd_sc_hd__dfrbp_1_D mem_left_ipin_0.sc_dff_compact_1_.sky130_fd_sc_hd__dfrbp_1/D
+ VGND VPWR sky130_fd_sc_hd__diode_2
XFILLER_21_341 VGND VPWR sky130_fd_sc_hd__decap_12
XFILLER_25_168 VGND VPWR sky130_fd_sc_hd__decap_12
XANTENNA_mem_right_ipin_0.sc_dff_compact_1_.sky130_fd_sc_hd__dfrbp_1_D mem_right_ipin_0.sc_dff_compact_0_.sky130_fd_sc_hd__dfrbp_1/Q
+ VGND VPWR sky130_fd_sc_hd__diode_2
XFILLER_0_278 VGND VPWR sky130_fd_sc_hd__fill_1
XPHY_130 VGND VPWR sky130_fd_sc_hd__tapvpwrvgnd_1
XPHY_141 VGND VPWR sky130_fd_sc_hd__tapvpwrvgnd_1
XPHY_152 VGND VPWR sky130_fd_sc_hd__tapvpwrvgnd_1
XFILLER_24_190 VGND VPWR sky130_fd_sc_hd__decap_12
XFILLER_8_312 VGND VPWR sky130_fd_sc_hd__decap_12
XFILLER_12_385 VGND VPWR sky130_fd_sc_hd__fill_2
XPHY_163 VGND VPWR sky130_fd_sc_hd__tapvpwrvgnd_1
XPHY_174 VGND VPWR sky130_fd_sc_hd__tapvpwrvgnd_1
XPHY_185 VGND VPWR sky130_fd_sc_hd__tapvpwrvgnd_1
XPHY_196 VGND VPWR sky130_fd_sc_hd__tapvpwrvgnd_1
XFILLER_21_171 VGND VPWR sky130_fd_sc_hd__decap_12
XANTENNA_mem_right_ipin_0.sc_dff_compact_5_.sky130_fd_sc_hd__dfrbp_1_RESET_B pReset
+ VGND VPWR sky130_fd_sc_hd__diode_2
XFILLER_3_28 VGND VPWR sky130_fd_sc_hd__decap_12
XFILLER_16_90 VGND VPWR sky130_fd_sc_hd__fill_2
XANTENNA__26__A chany_bottom_in[1] VGND VPWR sky130_fd_sc_hd__diode_2
XFILLER_5_123 VGND VPWR sky130_fd_sc_hd__decap_12
XFILLER_17_241 VGND VPWR sky130_fd_sc_hd__decap_3
XFILLER_4_93 VGND VPWR sky130_fd_sc_hd__decap_12
XFILLER_23_36 VGND VPWR sky130_fd_sc_hd__decap_12
XFILLER_0_18 VGND VPWR sky130_fd_sc_hd__decap_12
XANTENNA_mem_left_ipin_0.sc_dff_compact_4_.sky130_fd_sc_hd__dfrbp_1_D mem_left_ipin_0.sc_dff_compact_3_.sky130_fd_sc_hd__dfrbp_1/Q
+ VGND VPWR sky130_fd_sc_hd__diode_2
XFILLER_18_36 VGND VPWR sky130_fd_sc_hd__fill_2
XFILLER_7_207 VGND VPWR sky130_fd_sc_hd__fill_2
XFILLER_1_3 VGND VPWR sky130_fd_sc_hd__fill_2
XANTENNA_mem_right_ipin_0.sc_dff_compact_4_.sky130_fd_sc_hd__dfrbp_1_D mem_right_ipin_0.sc_dff_compact_4_.sky130_fd_sc_hd__dfrbp_1/D
+ VGND VPWR sky130_fd_sc_hd__diode_2
XFILLER_10_280 VGND VPWR sky130_fd_sc_hd__fill_2
X_27_ chany_bottom_in[0] chany_top_out[0] VGND VPWR sky130_fd_sc_hd__buf_2
XFILLER_20_15 VGND VPWR sky130_fd_sc_hd__decap_6
XFILLER_24_361 VGND VPWR sky130_fd_sc_hd__decap_12
XFILLER_3_232 VGND VPWR sky130_fd_sc_hd__decap_12
XFILLER_19_188 VGND VPWR sky130_fd_sc_hd__fill_1
XFILLER_15_15 VGND VPWR sky130_fd_sc_hd__decap_6
XFILLER_25_125 VGND VPWR sky130_fd_sc_hd__decap_12
XFILLER_15_59 VGND VPWR sky130_fd_sc_hd__fill_2
XFILLER_21_353 VGND VPWR sky130_fd_sc_hd__decap_12
XFILLER_0_224 VGND VPWR sky130_fd_sc_hd__fill_2
XFILLER_0_257 VGND VPWR sky130_fd_sc_hd__fill_1
XPHY_120 VGND VPWR sky130_fd_sc_hd__tapvpwrvgnd_1
XPHY_131 VGND VPWR sky130_fd_sc_hd__tapvpwrvgnd_1
XPHY_142 VGND VPWR sky130_fd_sc_hd__tapvpwrvgnd_1
XPHY_153 VGND VPWR sky130_fd_sc_hd__tapvpwrvgnd_1
XFILLER_16_136 VGND VPWR sky130_fd_sc_hd__decap_3
XFILLER_16_158 VGND VPWR sky130_fd_sc_hd__decap_12
XPHY_164 VGND VPWR sky130_fd_sc_hd__tapvpwrvgnd_1
XPHY_175 VGND VPWR sky130_fd_sc_hd__tapvpwrvgnd_1
XFILLER_8_324 VGND VPWR sky130_fd_sc_hd__decap_12
XPHY_186 VGND VPWR sky130_fd_sc_hd__tapvpwrvgnd_1
XPHY_197 VGND VPWR sky130_fd_sc_hd__tapvpwrvgnd_1
XPHY_0 VGND VPWR sky130_fd_sc_hd__decap_3
XFILLER_7_60 VGND VPWR sky130_fd_sc_hd__fill_1
XANTENNA_mem_right_ipin_1.sc_dff_compact_2_.sky130_fd_sc_hd__dfrbp_1_D mem_right_ipin_1.sc_dff_compact_1_.sky130_fd_sc_hd__dfrbp_1/Q
+ VGND VPWR sky130_fd_sc_hd__diode_2
XFILLER_8_154 VGND VPWR sky130_fd_sc_hd__fill_2
XFILLER_2_319 VGND VPWR sky130_fd_sc_hd__fill_2
XFILLER_5_135 VGND VPWR sky130_fd_sc_hd__decap_12
Xclkbuf_2_0_0_prog_clk clkbuf_0_prog_clk/X clkbuf_2_0_0_prog_clk/X VGND VPWR sky130_fd_sc_hd__clkbuf_1
XFILLER_1_330 VGND VPWR sky130_fd_sc_hd__decap_4
XFILLER_4_190 VGND VPWR sky130_fd_sc_hd__decap_12
XFILLER_23_48 VGND VPWR sky130_fd_sc_hd__decap_12
XFILLER_23_245 VGND VPWR sky130_fd_sc_hd__decap_12
XFILLER_2_105 VGND VPWR sky130_fd_sc_hd__decap_12
Xmem_right_ipin_6.sc_dff_compact_4_.sky130_fd_sc_hd__dfrbp_1 mem_right_ipin_6.sc_dff_compact_4_.sky130_fd_sc_hd__dfrbp_1/D
+ mem_right_ipin_6.sc_dff_compact_4_.sky130_fd_sc_hd__dfrbp_1/Q mem_right_ipin_6.sc_dff_compact_4_.sky130_fd_sc_hd__dfrbp_1/Q_N
+ pReset clkbuf_2_1_0_prog_clk/X VGND VPWR sky130_fd_sc_hd__dfrbp_1
XFILLER_9_39 VGND VPWR sky130_fd_sc_hd__fill_2
XFILLER_13_92 VGND VPWR sky130_fd_sc_hd__fill_1
XFILLER_14_267 VGND VPWR sky130_fd_sc_hd__decap_8
XFILLER_20_215 VGND VPWR sky130_fd_sc_hd__fill_2
XFILLER_9_260 VGND VPWR sky130_fd_sc_hd__fill_2
Xmem_left_ipin_0.sc_dff_compact_5_.sky130_fd_sc_hd__dfrbp_1 mem_left_ipin_0.sc_dff_compact_5_.sky130_fd_sc_hd__dfrbp_1/D
+ mem_left_ipin_0.sc_dff_compact_5_.sky130_fd_sc_hd__dfrbp_1/Q mem_left_ipin_0.sc_dff_compact_5_.sky130_fd_sc_hd__dfrbp_1/Q_N
+ pReset clkbuf_2_0_0_prog_clk/X VGND VPWR sky130_fd_sc_hd__dfrbp_1
XFILLER_11_215 VGND VPWR sky130_fd_sc_hd__decap_12
Xmem_right_ipin_3.sc_dff_compact_5_.sky130_fd_sc_hd__dfrbp_1 mem_right_ipin_3.sc_dff_compact_4_.sky130_fd_sc_hd__dfrbp_1/Q
+ mem_right_ipin_4.sc_dff_compact_0_.sky130_fd_sc_hd__dfrbp_1/D mem_right_ipin_3.sc_dff_compact_5_.sky130_fd_sc_hd__dfrbp_1/Q_N
+ pReset clkbuf_2_0_0_prog_clk/X VGND VPWR sky130_fd_sc_hd__dfrbp_1
XFILLER_6_274 VGND VPWR sky130_fd_sc_hd__fill_1
XANTENNA_mem_right_ipin_2.sc_dff_compact_0_.sky130_fd_sc_hd__dfrbp_1_D mem_right_ipin_2.sc_dff_compact_0_.sky130_fd_sc_hd__dfrbp_1/D
+ VGND VPWR sky130_fd_sc_hd__diode_2
XFILLER_24_80 VGND VPWR sky130_fd_sc_hd__decap_12
X_26_ chany_bottom_in[1] chany_top_out[1] VGND VPWR sky130_fd_sc_hd__buf_2
XFILLER_1_62 VGND VPWR sky130_fd_sc_hd__decap_12
XFILLER_24_373 VGND VPWR sky130_fd_sc_hd__decap_12
XFILLER_10_93 VGND VPWR sky130_fd_sc_hd__decap_12
XFILLER_13_9 VGND VPWR sky130_fd_sc_hd__fill_2
XFILLER_19_112 VGND VPWR sky130_fd_sc_hd__decap_8
XFILLER_19_123 VGND VPWR sky130_fd_sc_hd__decap_12
XANTENNA_mem_right_ipin_0.sc_dff_compact_3_.sky130_fd_sc_hd__dfrbp_1_CLK clkbuf_2_2_0_prog_clk/X
+ VGND VPWR sky130_fd_sc_hd__diode_2
XANTENNA_mem_right_ipin_1.sc_dff_compact_5_.sky130_fd_sc_hd__dfrbp_1_D mem_right_ipin_1.sc_dff_compact_5_.sky130_fd_sc_hd__dfrbp_1/D
+ VGND VPWR sky130_fd_sc_hd__diode_2
XANTENNA_mem_right_ipin_1.sc_dff_compact_4_.sky130_fd_sc_hd__dfrbp_1_CLK clkbuf_2_2_0_prog_clk/X
+ VGND VPWR sky130_fd_sc_hd__diode_2
X_09_ _09_/HI right_grid_pin_3_ VGND VPWR sky130_fd_sc_hd__conb_1
XFILLER_25_137 VGND VPWR sky130_fd_sc_hd__decap_12
XFILLER_21_365 VGND VPWR sky130_fd_sc_hd__fill_1
Xmem_right_ipin_1.sc_dff_compact_0_.sky130_fd_sc_hd__dfrbp_1 mem_right_ipin_1.sc_dff_compact_0_.sky130_fd_sc_hd__dfrbp_1/D
+ mem_right_ipin_1.sc_dff_compact_1_.sky130_fd_sc_hd__dfrbp_1/D mem_right_ipin_1.sc_dff_compact_0_.sky130_fd_sc_hd__dfrbp_1/Q_N
+ pReset clkbuf_2_2_0_prog_clk/X VGND VPWR sky130_fd_sc_hd__dfrbp_1
XFILLER_0_203 VGND VPWR sky130_fd_sc_hd__fill_2
XANTENNA_mem_right_ipin_2.sc_dff_compact_5_.sky130_fd_sc_hd__dfrbp_1_CLK clkbuf_2_3_0_prog_clk/X
+ VGND VPWR sky130_fd_sc_hd__diode_2
XPHY_110 VGND VPWR sky130_fd_sc_hd__tapvpwrvgnd_1
XPHY_121 VGND VPWR sky130_fd_sc_hd__tapvpwrvgnd_1
XPHY_132 VGND VPWR sky130_fd_sc_hd__tapvpwrvgnd_1
XPHY_143 VGND VPWR sky130_fd_sc_hd__tapvpwrvgnd_1
XPHY_154 VGND VPWR sky130_fd_sc_hd__tapvpwrvgnd_1
XPHY_165 VGND VPWR sky130_fd_sc_hd__tapvpwrvgnd_1
XPHY_176 VGND VPWR sky130_fd_sc_hd__tapvpwrvgnd_1
XPHY_187 VGND VPWR sky130_fd_sc_hd__tapvpwrvgnd_1
XPHY_198 VGND VPWR sky130_fd_sc_hd__tapvpwrvgnd_1
XPHY_1 VGND VPWR sky130_fd_sc_hd__decap_3
XFILLER_13_129 VGND VPWR sky130_fd_sc_hd__fill_1
XFILLER_5_306 VGND VPWR sky130_fd_sc_hd__decap_12
XFILLER_21_184 VGND VPWR sky130_fd_sc_hd__decap_12
XFILLER_12_151 VGND VPWR sky130_fd_sc_hd__fill_2
XFILLER_4_361 VGND VPWR sky130_fd_sc_hd__decap_12
XFILLER_12_17 VGND VPWR sky130_fd_sc_hd__fill_1
XFILLER_5_147 VGND VPWR sky130_fd_sc_hd__decap_12
XFILLER_1_320 VGND VPWR sky130_fd_sc_hd__fill_2
XFILLER_17_221 VGND VPWR sky130_fd_sc_hd__decap_12
XANTENNA_mem_right_ipin_2.sc_dff_compact_3_.sky130_fd_sc_hd__dfrbp_1_D mem_right_ipin_2.sc_dff_compact_2_.sky130_fd_sc_hd__dfrbp_1/Q
+ VGND VPWR sky130_fd_sc_hd__diode_2
XFILLER_2_117 VGND VPWR sky130_fd_sc_hd__decap_12
XFILLER_14_213 VGND VPWR sky130_fd_sc_hd__fill_1
XFILLER_18_16 VGND VPWR sky130_fd_sc_hd__decap_4
XFILLER_11_227 VGND VPWR sky130_fd_sc_hd__decap_12
XFILLER_6_231 VGND VPWR sky130_fd_sc_hd__decap_12
XFILLER_1_74 VGND VPWR sky130_fd_sc_hd__decap_12
X_25_ chany_bottom_in[2] chany_top_out[2] VGND VPWR sky130_fd_sc_hd__buf_2
XFILLER_24_385 VGND VPWR sky130_fd_sc_hd__fill_2
XFILLER_3_245 VGND VPWR sky130_fd_sc_hd__decap_12
XFILLER_15_330 VGND VPWR sky130_fd_sc_hd__decap_12
XFILLER_19_135 VGND VPWR sky130_fd_sc_hd__decap_8
XFILLER_19_146 VGND VPWR sky130_fd_sc_hd__fill_2
XFILLER_19_179 VGND VPWR sky130_fd_sc_hd__decap_4
XANTENNA_clkbuf_2_2_0_prog_clk_A clkbuf_0_prog_clk/X VGND VPWR sky130_fd_sc_hd__diode_2
X_08_ _08_/HI left_grid_pin_0_ VGND VPWR sky130_fd_sc_hd__conb_1
XANTENNA_mem_right_ipin_3.sc_dff_compact_1_.sky130_fd_sc_hd__dfrbp_1_D mem_right_ipin_3.sc_dff_compact_0_.sky130_fd_sc_hd__dfrbp_1/Q
+ VGND VPWR sky130_fd_sc_hd__diode_2
XFILLER_15_28 VGND VPWR sky130_fd_sc_hd__fill_2
XFILLER_25_149 VGND VPWR sky130_fd_sc_hd__decap_6
XFILLER_0_215 VGND VPWR sky130_fd_sc_hd__fill_2
XPHY_100 VGND VPWR sky130_fd_sc_hd__tapvpwrvgnd_1
XPHY_111 VGND VPWR sky130_fd_sc_hd__tapvpwrvgnd_1
XFILLER_8_337 VGND VPWR sky130_fd_sc_hd__decap_12
XPHY_122 VGND VPWR sky130_fd_sc_hd__tapvpwrvgnd_1
XPHY_133 VGND VPWR sky130_fd_sc_hd__tapvpwrvgnd_1
XFILLER_12_333 VGND VPWR sky130_fd_sc_hd__decap_3
XPHY_144 VGND VPWR sky130_fd_sc_hd__tapvpwrvgnd_1
XPHY_155 VGND VPWR sky130_fd_sc_hd__tapvpwrvgnd_1
XPHY_166 VGND VPWR sky130_fd_sc_hd__tapvpwrvgnd_1
XPHY_177 VGND VPWR sky130_fd_sc_hd__tapvpwrvgnd_1
XPHY_188 VGND VPWR sky130_fd_sc_hd__tapvpwrvgnd_1
XPHY_199 VGND VPWR sky130_fd_sc_hd__tapvpwrvgnd_1
XFILLER_21_82 VGND VPWR sky130_fd_sc_hd__fill_1
XPHY_2 VGND VPWR sky130_fd_sc_hd__decap_3
XFILLER_7_62 VGND VPWR sky130_fd_sc_hd__decap_12
XFILLER_7_40 VGND VPWR sky130_fd_sc_hd__fill_2
XFILLER_21_196 VGND VPWR sky130_fd_sc_hd__decap_8
XFILLER_5_318 VGND VPWR sky130_fd_sc_hd__decap_12
XFILLER_16_82 VGND VPWR sky130_fd_sc_hd__decap_8
XFILLER_16_93 VGND VPWR sky130_fd_sc_hd__decap_12
XFILLER_12_141 VGND VPWR sky130_fd_sc_hd__decap_4
XFILLER_4_373 VGND VPWR sky130_fd_sc_hd__decap_12
XFILLER_5_159 VGND VPWR sky130_fd_sc_hd__decap_12
XFILLER_1_365 VGND VPWR sky130_fd_sc_hd__fill_1
XFILLER_17_233 VGND VPWR sky130_fd_sc_hd__decap_8
XANTENNA_mem_right_ipin_5.sc_dff_compact_0_.sky130_fd_sc_hd__dfrbp_1_CLK clkbuf_2_1_0_prog_clk/X
+ VGND VPWR sky130_fd_sc_hd__diode_2
XANTENNA_mem_right_ipin_6.sc_dff_compact_1_.sky130_fd_sc_hd__dfrbp_1_CLK clkbuf_2_3_0_prog_clk/X
+ VGND VPWR sky130_fd_sc_hd__diode_2
XFILLER_2_129 VGND VPWR sky130_fd_sc_hd__decap_12
XANTENNA_mem_right_ipin_7.sc_dff_compact_2_.sky130_fd_sc_hd__dfrbp_1_CLK clkbuf_2_1_0_prog_clk/X
+ VGND VPWR sky130_fd_sc_hd__diode_2
XFILLER_1_184 VGND VPWR sky130_fd_sc_hd__decap_12
XANTENNA_mem_right_ipin_3.sc_dff_compact_4_.sky130_fd_sc_hd__dfrbp_1_D mem_right_ipin_3.sc_dff_compact_3_.sky130_fd_sc_hd__dfrbp_1/Q
+ VGND VPWR sky130_fd_sc_hd__diode_2
XFILLER_11_239 VGND VPWR sky130_fd_sc_hd__decap_4
XFILLER_19_306 VGND VPWR sky130_fd_sc_hd__decap_12
XFILLER_10_261 VGND VPWR sky130_fd_sc_hd__decap_4
XFILLER_24_93 VGND VPWR sky130_fd_sc_hd__decap_12
XFILLER_6_276 VGND VPWR sky130_fd_sc_hd__decap_12
Xmem_right_ipin_5.sc_dff_compact_3_.sky130_fd_sc_hd__dfrbp_1 mem_right_ipin_5.sc_dff_compact_3_.sky130_fd_sc_hd__dfrbp_1/D
+ mem_right_ipin_5.sc_dff_compact_3_.sky130_fd_sc_hd__dfrbp_1/Q mem_right_ipin_5.sc_dff_compact_3_.sky130_fd_sc_hd__dfrbp_1/Q_N
+ pReset clkbuf_2_3_0_prog_clk/X VGND VPWR sky130_fd_sc_hd__dfrbp_1
XFILLER_1_20 VGND VPWR sky130_fd_sc_hd__decap_12
X_24_ chany_bottom_in[3] chany_top_out[3] VGND VPWR sky130_fd_sc_hd__buf_2
XANTENNA_mem_left_ipin_0.sc_dff_compact_2_.sky130_fd_sc_hd__dfrbp_1_CLK clkbuf_2_0_0_prog_clk/X
+ VGND VPWR sky130_fd_sc_hd__diode_2
XFILLER_1_86 VGND VPWR sky130_fd_sc_hd__decap_12
XFILLER_18_361 VGND VPWR sky130_fd_sc_hd__decap_12
XFILLER_3_257 VGND VPWR sky130_fd_sc_hd__decap_12
XFILLER_10_62 VGND VPWR sky130_fd_sc_hd__fill_2
XFILLER_19_60 VGND VPWR sky130_fd_sc_hd__fill_1
Xmem_right_ipin_2.sc_dff_compact_4_.sky130_fd_sc_hd__dfrbp_1 mem_right_ipin_2.sc_dff_compact_4_.sky130_fd_sc_hd__dfrbp_1/D
+ mem_right_ipin_2.sc_dff_compact_4_.sky130_fd_sc_hd__dfrbp_1/Q mem_right_ipin_2.sc_dff_compact_4_.sky130_fd_sc_hd__dfrbp_1/Q_N
+ pReset clkbuf_2_3_0_prog_clk/X VGND VPWR sky130_fd_sc_hd__dfrbp_1
XFILLER_15_342 VGND VPWR sky130_fd_sc_hd__decap_12
X_07_ _07_/HI left_grid_pin_10_ VGND VPWR sky130_fd_sc_hd__conb_1
XFILLER_25_106 VGND VPWR sky130_fd_sc_hd__decap_12
XFILLER_18_180 VGND VPWR sky130_fd_sc_hd__decap_12
XFILLER_21_367 VGND VPWR sky130_fd_sc_hd__decap_12
XFILLER_0_249 VGND VPWR sky130_fd_sc_hd__decap_8
XPHY_101 VGND VPWR sky130_fd_sc_hd__tapvpwrvgnd_1
XPHY_112 VGND VPWR sky130_fd_sc_hd__tapvpwrvgnd_1
XPHY_123 VGND VPWR sky130_fd_sc_hd__tapvpwrvgnd_1
XPHY_134 VGND VPWR sky130_fd_sc_hd__tapvpwrvgnd_1
XFILLER_12_301 VGND VPWR sky130_fd_sc_hd__decap_12
XFILLER_16_128 VGND VPWR sky130_fd_sc_hd__decap_8
XFILLER_8_349 VGND VPWR sky130_fd_sc_hd__decap_12
XPHY_145 VGND VPWR sky130_fd_sc_hd__tapvpwrvgnd_1
XPHY_156 VGND VPWR sky130_fd_sc_hd__tapvpwrvgnd_1
XPHY_167 VGND VPWR sky130_fd_sc_hd__tapvpwrvgnd_1
XPHY_178 VGND VPWR sky130_fd_sc_hd__tapvpwrvgnd_1
XPHY_189 VGND VPWR sky130_fd_sc_hd__tapvpwrvgnd_1
XPHY_3 VGND VPWR sky130_fd_sc_hd__decap_3
XFILLER_15_150 VGND VPWR sky130_fd_sc_hd__fill_2
XFILLER_7_74 VGND VPWR sky130_fd_sc_hd__decap_3
XANTENNA_mem_right_ipin_4.sc_dff_compact_2_.sky130_fd_sc_hd__dfrbp_1_D mem_right_ipin_4.sc_dff_compact_1_.sky130_fd_sc_hd__dfrbp_1/Q
+ VGND VPWR sky130_fd_sc_hd__diode_2
XFILLER_16_72 VGND VPWR sky130_fd_sc_hd__decap_3