* NGSPICE file created from cby_0__1_.ext - technology: sky130A

* Black-box entry subcircuit for sky130_fd_sc_hd__decap_12 abstract view
.subckt sky130_fd_sc_hd__decap_12 VGND VPWR
.ends

* Black-box entry subcircuit for sky130_fd_sc_hd__decap_3 abstract view
.subckt sky130_fd_sc_hd__decap_3 VGND VPWR
.ends

* Black-box entry subcircuit for sky130_fd_sc_hd__dfrbp_1 abstract view
.subckt sky130_fd_sc_hd__dfrbp_1 D Q Q_N RESET_B CLK VGND VPWR
.ends

* Black-box entry subcircuit for sky130_fd_sc_hd__decap_8 abstract view
.subckt sky130_fd_sc_hd__decap_8 VGND VPWR
.ends

* Black-box entry subcircuit for sky130_fd_sc_hd__fill_1 abstract view
.subckt sky130_fd_sc_hd__fill_1 VGND VPWR
.ends

* Black-box entry subcircuit for sky130_fd_sc_hd__diode_2 abstract view
.subckt sky130_fd_sc_hd__diode_2 DIODE VGND VPWR
.ends

* Black-box entry subcircuit for sky130_fd_sc_hd__fill_2 abstract view
.subckt sky130_fd_sc_hd__fill_2 VGND VPWR
.ends

* Black-box entry subcircuit for sky130_fd_sc_hd__tapvpwrvgnd_1 abstract view
.subckt sky130_fd_sc_hd__tapvpwrvgnd_1 VGND VPWR
.ends

* Black-box entry subcircuit for sky130_fd_sc_hd__decap_4 abstract view
.subckt sky130_fd_sc_hd__decap_4 VGND VPWR
.ends

* Black-box entry subcircuit for sky130_fd_sc_hd__clkbuf_1 abstract view
.subckt sky130_fd_sc_hd__clkbuf_1 A X VGND VPWR
.ends

* Black-box entry subcircuit for sky130_fd_sc_hd__decap_6 abstract view
.subckt sky130_fd_sc_hd__decap_6 VGND VPWR
.ends

* Black-box entry subcircuit for sky130_fd_sc_hd__buf_2 abstract view
.subckt sky130_fd_sc_hd__buf_2 A X VGND VPWR
.ends

* Black-box entry subcircuit for sky130_fd_sc_hd__conb_1 abstract view
.subckt sky130_fd_sc_hd__conb_1 HI LO VGND VPWR
.ends

* Black-box entry subcircuit for sky130_fd_sc_hd__clkbuf_16 abstract view
.subckt sky130_fd_sc_hd__clkbuf_16 A X VGND VPWR
.ends

.subckt cby_0__1_ chany_out_1_ chany_in_0_ chany_in_2_ chany_in_4_ chany_in_6_ chany_in_8_
+ chany_in_10_ chany_in_12_ chany_in_14_ chany_in_16_ right_grid_pin_3_ right_grid_pin_7_
+ ccff_tail ccff_head prog_clk pReset left_grid_pin_0_ left_grid_pin_2_ left_grid_pin_4_
+ left_grid_pin_6_ left_grid_pin_8_ left_grid_pin_10_ left_grid_pin_12_ left_grid_pin_14_
+ chany_in_15_ chany_in_17_ chany_out_0_ chany_out_2_ chany_out_4_ chany_out_6_ chany_out_8_
+ chany_out_10_ chany_out_12_ chany_out_14_ chany_out_16_ chany_out_3_ chany_out_5_
+ chany_out_7_ chany_out_9_ chany_out_11_ chany_out_13_ chany_out_15_ chany_out_17_
+ chany_in_1_ chany_in_3_ chany_in_5_ chany_in_7_ chany_in_9_ chany_in_11_ chany_in_13_
+ VPWR VGND
XFILLER_22_166 VGND VPWR sky130_fd_sc_hd__decap_12
XFILLER_22_133 VGND VPWR sky130_fd_sc_hd__decap_3
Xmem_right_ipin_7.sc_dff_compact_2_.sky130_fd_sc_hd__dfrbp_1 mem_right_ipin_7.sc_dff_compact_2_.sky130_fd_sc_hd__dfrbp_1/D
+ mem_right_ipin_7.sc_dff_compact_3_.sky130_fd_sc_hd__dfrbp_1/D mem_right_ipin_7.sc_dff_compact_2_.sky130_fd_sc_hd__dfrbp_1/Q_N
+ pReset clkbuf_2_1_0_prog_clk/X VGND VPWR sky130_fd_sc_hd__dfrbp_1
XFILLER_26_52 VGND VPWR sky130_fd_sc_hd__decap_8
XFILLER_26_30 VGND VPWR sky130_fd_sc_hd__fill_1
XFILLER_3_78 VGND VPWR sky130_fd_sc_hd__fill_1
XANTENNA_mem_right_ipin_7.sc_dff_compact_3_.sky130_fd_sc_hd__dfrbp_1_D mem_right_ipin_7.sc_dff_compact_3_.sky130_fd_sc_hd__dfrbp_1/D
+ VGND VPWR sky130_fd_sc_hd__diode_2
Xmem_right_ipin_4.sc_dff_compact_3_.sky130_fd_sc_hd__dfrbp_1 mem_right_ipin_4.sc_dff_compact_2_.sky130_fd_sc_hd__dfrbp_1/Q
+ mem_right_ipin_4.sc_dff_compact_4_.sky130_fd_sc_hd__dfrbp_1/D mem_right_ipin_4.sc_dff_compact_3_.sky130_fd_sc_hd__dfrbp_1/Q_N
+ pReset clkbuf_2_3_0_prog_clk/X VGND VPWR sky130_fd_sc_hd__dfrbp_1
XFILLER_12_32 VGND VPWR sky130_fd_sc_hd__decap_12
XFILLER_6_129 VGND VPWR sky130_fd_sc_hd__decap_12
XFILLER_5_184 VGND VPWR sky130_fd_sc_hd__decap_12
Xmem_right_ipin_1.sc_dff_compact_4_.sky130_fd_sc_hd__dfrbp_1 mem_right_ipin_1.sc_dff_compact_3_.sky130_fd_sc_hd__dfrbp_1/Q
+ mem_right_ipin_1.sc_dff_compact_5_.sky130_fd_sc_hd__dfrbp_1/D mem_right_ipin_1.sc_dff_compact_4_.sky130_fd_sc_hd__dfrbp_1/Q_N
+ pReset clkbuf_2_0_0_prog_clk/X VGND VPWR sky130_fd_sc_hd__dfrbp_1
XFILLER_2_154 VGND VPWR sky130_fd_sc_hd__decap_12
XFILLER_2_132 VGND VPWR sky130_fd_sc_hd__decap_12
XFILLER_9_11 VGND VPWR sky130_fd_sc_hd__fill_2
XFILLER_9_55 VGND VPWR sky130_fd_sc_hd__fill_2
XFILLER_9_99 VGND VPWR sky130_fd_sc_hd__decap_12
XANTENNA_clkbuf_2_1_0_prog_clk_A clkbuf_2_1_0_prog_clk/A VGND VPWR sky130_fd_sc_hd__diode_2
XFILLER_29_128 VGND VPWR sky130_fd_sc_hd__decap_3
XFILLER_29_52 VGND VPWR sky130_fd_sc_hd__fill_1
XFILLER_20_87 VGND VPWR sky130_fd_sc_hd__fill_1
XFILLER_20_32 VGND VPWR sky130_fd_sc_hd__fill_2
XFILLER_13_3 VGND VPWR sky130_fd_sc_hd__fill_2
XFILLER_6_89 VGND VPWR sky130_fd_sc_hd__decap_3
XFILLER_25_175 VGND VPWR sky130_fd_sc_hd__fill_2
XFILLER_25_131 VGND VPWR sky130_fd_sc_hd__fill_1
XFILLER_15_87 VGND VPWR sky130_fd_sc_hd__decap_12
XPHY_170 VGND VPWR sky130_fd_sc_hd__tapvpwrvgnd_1
XFILLER_31_189 VGND VPWR sky130_fd_sc_hd__decap_8
XFILLER_31_123 VGND VPWR sky130_fd_sc_hd__fill_2
XFILLER_31_112 VGND VPWR sky130_fd_sc_hd__fill_2
XFILLER_22_178 VGND VPWR sky130_fd_sc_hd__decap_12
XFILLER_22_101 VGND VPWR sky130_fd_sc_hd__fill_2
XFILLER_13_123 VGND VPWR sky130_fd_sc_hd__decap_12
XFILLER_3_68 VGND VPWR sky130_fd_sc_hd__fill_2
XFILLER_9_116 VGND VPWR sky130_fd_sc_hd__fill_2
XFILLER_12_44 VGND VPWR sky130_fd_sc_hd__decap_12
XFILLER_12_11 VGND VPWR sky130_fd_sc_hd__fill_2
XFILLER_10_104 VGND VPWR sky130_fd_sc_hd__fill_2
XFILLER_5_196 VGND VPWR sky130_fd_sc_hd__fill_2
XFILLER_23_43 VGND VPWR sky130_fd_sc_hd__fill_1
XFILLER_23_10 VGND VPWR sky130_fd_sc_hd__fill_2
XANTENNA_mem_right_ipin_0.sc_dff_compact_4_.sky130_fd_sc_hd__dfrbp_1_RESET_B pReset
+ VGND VPWR sky130_fd_sc_hd__diode_2
XFILLER_2_166 VGND VPWR sky130_fd_sc_hd__decap_12
XFILLER_2_144 VGND VPWR sky130_fd_sc_hd__decap_8
XFILLER_18_65 VGND VPWR sky130_fd_sc_hd__fill_1
XFILLER_18_32 VGND VPWR sky130_fd_sc_hd__fill_2
XANTENNA_mem_right_ipin_2.sc_dff_compact_5_.sky130_fd_sc_hd__dfrbp_1_RESET_B pReset
+ VGND VPWR sky130_fd_sc_hd__diode_2
XFILLER_29_107 VGND VPWR sky130_fd_sc_hd__fill_2
XFILLER_19_184 VGND VPWR sky130_fd_sc_hd__decap_12
XFILLER_6_57 VGND VPWR sky130_fd_sc_hd__decap_12
XFILLER_25_121 VGND VPWR sky130_fd_sc_hd__fill_1
XPHY_171 VGND VPWR sky130_fd_sc_hd__tapvpwrvgnd_1
XFILLER_31_98 VGND VPWR sky130_fd_sc_hd__decap_8
XFILLER_31_87 VGND VPWR sky130_fd_sc_hd__decap_8
XFILLER_31_43 VGND VPWR sky130_fd_sc_hd__decap_12
XPHY_160 VGND VPWR sky130_fd_sc_hd__tapvpwrvgnd_1
XFILLER_16_154 VGND VPWR sky130_fd_sc_hd__decap_12
XFILLER_16_132 VGND VPWR sky130_fd_sc_hd__fill_2
XFILLER_15_99 VGND VPWR sky130_fd_sc_hd__decap_8
XFILLER_26_65 VGND VPWR sky130_fd_sc_hd__fill_2
XFILLER_26_32 VGND VPWR sky130_fd_sc_hd__fill_2
XANTENNA_mem_right_ipin_0.sc_dff_compact_4_.sky130_fd_sc_hd__dfrbp_1_CLK clkbuf_2_0_0_prog_clk/X
+ VGND VPWR sky130_fd_sc_hd__diode_2
XFILLER_12_190 VGND VPWR sky130_fd_sc_hd__decap_8
XFILLER_12_56 VGND VPWR sky130_fd_sc_hd__decap_4
XANTENNA_mem_right_ipin_1.sc_dff_compact_5_.sky130_fd_sc_hd__dfrbp_1_CLK clkbuf_2_0_0_prog_clk/X
+ VGND VPWR sky130_fd_sc_hd__diode_2
Xmem_right_ipin_6.sc_dff_compact_1_.sky130_fd_sc_hd__dfrbp_1 mem_right_ipin_6.sc_dff_compact_0_.sky130_fd_sc_hd__dfrbp_1/Q
+ mem_right_ipin_6.sc_dff_compact_1_.sky130_fd_sc_hd__dfrbp_1/Q mem_right_ipin_6.sc_dff_compact_1_.sky130_fd_sc_hd__dfrbp_1/Q_N
+ pReset clkbuf_2_3_0_prog_clk/X VGND VPWR sky130_fd_sc_hd__dfrbp_1
Xmem_left_ipin_0.sc_dff_compact_2_.sky130_fd_sc_hd__dfrbp_1 mem_left_ipin_0.sc_dff_compact_1_.sky130_fd_sc_hd__dfrbp_1/Q
+ mem_left_ipin_0.sc_dff_compact_2_.sky130_fd_sc_hd__dfrbp_1/Q mem_left_ipin_0.sc_dff_compact_2_.sky130_fd_sc_hd__dfrbp_1/Q_N
+ pReset clkbuf_2_1_0_prog_clk/X VGND VPWR sky130_fd_sc_hd__dfrbp_1
XFILLER_23_66 VGND VPWR sky130_fd_sc_hd__fill_2
XFILLER_3_3 VGND VPWR sky130_fd_sc_hd__decap_12
XFILLER_2_178 VGND VPWR sky130_fd_sc_hd__decap_12
XFILLER_2_101 VGND VPWR sky130_fd_sc_hd__decap_3
XFILLER_0_15 VGND VPWR sky130_fd_sc_hd__decap_12
Xmem_right_ipin_3.sc_dff_compact_2_.sky130_fd_sc_hd__dfrbp_1 mem_right_ipin_3.sc_dff_compact_1_.sky130_fd_sc_hd__dfrbp_1/Q
+ mem_right_ipin_3.sc_dff_compact_3_.sky130_fd_sc_hd__dfrbp_1/D mem_right_ipin_3.sc_dff_compact_2_.sky130_fd_sc_hd__dfrbp_1/Q_N
+ pReset clkbuf_2_2_0_prog_clk/X VGND VPWR sky130_fd_sc_hd__dfrbp_1
Xmem_right_ipin_0.sc_dff_compact_3_.sky130_fd_sc_hd__dfrbp_1 mem_right_ipin_0.sc_dff_compact_2_.sky130_fd_sc_hd__dfrbp_1/Q
+ mem_right_ipin_0.sc_dff_compact_4_.sky130_fd_sc_hd__dfrbp_1/D mem_right_ipin_0.sc_dff_compact_3_.sky130_fd_sc_hd__dfrbp_1/Q_N
+ pReset clkbuf_2_0_0_prog_clk/X VGND VPWR sky130_fd_sc_hd__dfrbp_1
XFILLER_20_67 VGND VPWR sky130_fd_sc_hd__fill_2
XANTENNA_clkbuf_1_0_0_prog_clk_A clkbuf_0_prog_clk/X VGND VPWR sky130_fd_sc_hd__diode_2
XFILLER_29_87 VGND VPWR sky130_fd_sc_hd__decap_12
XFILLER_28_152 VGND VPWR sky130_fd_sc_hd__fill_1
XFILLER_28_141 VGND VPWR sky130_fd_sc_hd__fill_1
XFILLER_6_69 VGND VPWR sky130_fd_sc_hd__decap_12
XFILLER_19_196 VGND VPWR sky130_fd_sc_hd__fill_2
XFILLER_31_55 VGND VPWR sky130_fd_sc_hd__fill_2
XFILLER_16_166 VGND VPWR sky130_fd_sc_hd__decap_12
XFILLER_16_111 VGND VPWR sky130_fd_sc_hd__fill_1
XFILLER_15_56 VGND VPWR sky130_fd_sc_hd__fill_1
XFILLER_15_34 VGND VPWR sky130_fd_sc_hd__decap_4
XPHY_172 VGND VPWR sky130_fd_sc_hd__tapvpwrvgnd_1
XPHY_161 VGND VPWR sky130_fd_sc_hd__tapvpwrvgnd_1
XPHY_150 VGND VPWR sky130_fd_sc_hd__tapvpwrvgnd_1
Xclkbuf_2_1_0_prog_clk clkbuf_2_1_0_prog_clk/A clkbuf_2_1_0_prog_clk/X VGND VPWR sky130_fd_sc_hd__clkbuf_1
XFILLER_26_22 VGND VPWR sky130_fd_sc_hd__decap_8
XFILLER_13_103 VGND VPWR sky130_fd_sc_hd__fill_2
XFILLER_7_90 VGND VPWR sky130_fd_sc_hd__decap_12
XFILLER_9_129 VGND VPWR sky130_fd_sc_hd__fill_2
XFILLER_3_59 VGND VPWR sky130_fd_sc_hd__fill_2
XFILLER_3_15 VGND VPWR sky130_fd_sc_hd__decap_12
XFILLER_5_110 VGND VPWR sky130_fd_sc_hd__decap_12
XFILLER_4_91 VGND VPWR sky130_fd_sc_hd__fill_1
XANTENNA_mem_right_ipin_1.sc_dff_compact_5_.sky130_fd_sc_hd__dfrbp_1_RESET_B pReset
+ VGND VPWR sky130_fd_sc_hd__diode_2
XANTENNA__12__A chany_in_11_ VGND VPWR sky130_fd_sc_hd__diode_2
XFILLER_0_27 VGND VPWR sky130_fd_sc_hd__decap_4
XFILLER_29_3 VGND VPWR sky130_fd_sc_hd__decap_8
XFILLER_9_36 VGND VPWR sky130_fd_sc_hd__decap_12
XANTENNA_mem_right_ipin_4.sc_dff_compact_0_.sky130_fd_sc_hd__dfrbp_1_CLK clkbuf_2_2_0_prog_clk/X
+ VGND VPWR sky130_fd_sc_hd__diode_2
XANTENNA_mem_right_ipin_5.sc_dff_compact_1_.sky130_fd_sc_hd__dfrbp_1_CLK clkbuf_2_3_0_prog_clk/X
+ VGND VPWR sky130_fd_sc_hd__diode_2
XANTENNA_mem_right_ipin_6.sc_dff_compact_2_.sky130_fd_sc_hd__dfrbp_1_CLK clkbuf_2_2_0_prog_clk/X
+ VGND VPWR sky130_fd_sc_hd__diode_2
XFILLER_1_70 VGND VPWR sky130_fd_sc_hd__decap_12
XFILLER_29_99 VGND VPWR sky130_fd_sc_hd__decap_6
XFILLER_29_55 VGND VPWR sky130_fd_sc_hd__fill_2
XFILLER_29_44 VGND VPWR sky130_fd_sc_hd__decap_8
XFILLER_29_11 VGND VPWR sky130_fd_sc_hd__fill_2
XANTENNA_mem_right_ipin_7.sc_dff_compact_3_.sky130_fd_sc_hd__dfrbp_1_CLK clkbuf_2_1_0_prog_clk/X
+ VGND VPWR sky130_fd_sc_hd__diode_2
XFILLER_20_79 VGND VPWR sky130_fd_sc_hd__decap_8
XFILLER_20_57 VGND VPWR sky130_fd_sc_hd__decap_4
XFILLER_6_15 VGND VPWR sky130_fd_sc_hd__decap_12
XFILLER_19_153 VGND VPWR sky130_fd_sc_hd__decap_12
XFILLER_31_12 VGND VPWR sky130_fd_sc_hd__decap_4
XFILLER_25_134 VGND VPWR sky130_fd_sc_hd__fill_2
XFILLER_25_123 VGND VPWR sky130_fd_sc_hd__decap_8
XFILLER_15_46 VGND VPWR sky130_fd_sc_hd__fill_2
XANTENNA__20__A chany_in_2_ VGND VPWR sky130_fd_sc_hd__diode_2
XPHY_173 VGND VPWR sky130_fd_sc_hd__tapvpwrvgnd_1
XFILLER_31_148 VGND VPWR sky130_fd_sc_hd__decap_12
XPHY_162 VGND VPWR sky130_fd_sc_hd__tapvpwrvgnd_1
XPHY_151 VGND VPWR sky130_fd_sc_hd__tapvpwrvgnd_1
XPHY_140 VGND VPWR sky130_fd_sc_hd__tapvpwrvgnd_1
XFILLER_16_178 VGND VPWR sky130_fd_sc_hd__decap_12
XFILLER_11_3 VGND VPWR sky130_fd_sc_hd__decap_3
XFILLER_30_181 VGND VPWR sky130_fd_sc_hd__decap_12
XFILLER_26_89 VGND VPWR sky130_fd_sc_hd__decap_3
XANTENNA_mem_left_ipin_0.sc_dff_compact_3_.sky130_fd_sc_hd__dfrbp_1_CLK clkbuf_2_1_0_prog_clk/X
+ VGND VPWR sky130_fd_sc_hd__diode_2
XFILLER_22_126 VGND VPWR sky130_fd_sc_hd__decap_4
XANTENNA__15__A chany_in_14_ VGND VPWR sky130_fd_sc_hd__diode_2
XFILLER_13_137 VGND VPWR sky130_fd_sc_hd__fill_2
XFILLER_3_27 VGND VPWR sky130_fd_sc_hd__decap_12
Xmem_right_ipin_7.sc_dff_compact_5_.sky130_fd_sc_hd__dfrbp_1 mem_right_ipin_7.sc_dff_compact_4_.sky130_fd_sc_hd__dfrbp_1/Q
+ ccff_tail mem_right_ipin_7.sc_dff_compact_5_.sky130_fd_sc_hd__dfrbp_1/Q_N pReset
+ clkbuf_2_1_0_prog_clk/X VGND VPWR sky130_fd_sc_hd__dfrbp_1
XFILLER_8_141 VGND VPWR sky130_fd_sc_hd__decap_12
XFILLER_9_48 VGND VPWR sky130_fd_sc_hd__fill_1
XFILLER_9_59 VGND VPWR sky130_fd_sc_hd__fill_2
Xmem_right_ipin_5.sc_dff_compact_0_.sky130_fd_sc_hd__dfrbp_1 mem_right_ipin_5.sc_dff_compact_0_.sky130_fd_sc_hd__dfrbp_1/D
+ mem_right_ipin_5.sc_dff_compact_1_.sky130_fd_sc_hd__dfrbp_1/D mem_right_ipin_5.sc_dff_compact_0_.sky130_fd_sc_hd__dfrbp_1/Q_N
+ pReset clkbuf_2_3_0_prog_clk/X VGND VPWR sky130_fd_sc_hd__dfrbp_1
XFILLER_18_68 VGND VPWR sky130_fd_sc_hd__fill_2
XFILLER_18_57 VGND VPWR sky130_fd_sc_hd__decap_8
XFILLER_18_24 VGND VPWR sky130_fd_sc_hd__decap_3
XANTENNA__23__A chany_in_5_ VGND VPWR sky130_fd_sc_hd__diode_2
XFILLER_1_82 VGND VPWR sky130_fd_sc_hd__decap_12
Xmem_right_ipin_2.sc_dff_compact_1_.sky130_fd_sc_hd__dfrbp_1 mem_right_ipin_2.sc_dff_compact_0_.sky130_fd_sc_hd__dfrbp_1/Q
+ mem_right_ipin_2.sc_dff_compact_1_.sky130_fd_sc_hd__dfrbp_1/Q mem_right_ipin_2.sc_dff_compact_1_.sky130_fd_sc_hd__dfrbp_1/Q_N
+ pReset clkbuf_2_0_0_prog_clk/X VGND VPWR sky130_fd_sc_hd__dfrbp_1
XFILLER_28_154 VGND VPWR sky130_fd_sc_hd__decap_12
XANTENNA__18__A chany_in_17_ VGND VPWR sky130_fd_sc_hd__diode_2
XFILLER_19_165 VGND VPWR sky130_fd_sc_hd__decap_12
XFILLER_6_27 VGND VPWR sky130_fd_sc_hd__decap_4
XANTENNA_mem_left_ipin_0.sc_dff_compact_1_.sky130_fd_sc_hd__dfrbp_1_D mem_left_ipin_0.sc_dff_compact_0_.sky130_fd_sc_hd__dfrbp_1/Q
+ VGND VPWR sky130_fd_sc_hd__diode_2
XFILLER_25_179 VGND VPWR sky130_fd_sc_hd__decap_4
XFILLER_25_113 VGND VPWR sky130_fd_sc_hd__decap_8
XFILLER_25_102 VGND VPWR sky130_fd_sc_hd__fill_1
XANTENNA_mem_right_ipin_0.sc_dff_compact_1_.sky130_fd_sc_hd__dfrbp_1_D mem_right_ipin_0.sc_dff_compact_0_.sky130_fd_sc_hd__dfrbp_1/Q
+ VGND VPWR sky130_fd_sc_hd__diode_2
XPHY_174 VGND VPWR sky130_fd_sc_hd__tapvpwrvgnd_1
XFILLER_31_116 VGND VPWR sky130_fd_sc_hd__fill_2
XPHY_163 VGND VPWR sky130_fd_sc_hd__tapvpwrvgnd_1
XPHY_152 VGND VPWR sky130_fd_sc_hd__tapvpwrvgnd_1
XFILLER_24_190 VGND VPWR sky130_fd_sc_hd__decap_8
XPHY_141 VGND VPWR sky130_fd_sc_hd__tapvpwrvgnd_1
XPHY_130 VGND VPWR sky130_fd_sc_hd__tapvpwrvgnd_1
XFILLER_30_193 VGND VPWR sky130_fd_sc_hd__decap_4
XFILLER_22_138 VGND VPWR sky130_fd_sc_hd__decap_12
XFILLER_21_182 VGND VPWR sky130_fd_sc_hd__fill_1
XANTENNA_mem_right_ipin_0.sc_dff_compact_5_.sky130_fd_sc_hd__dfrbp_1_RESET_B pReset
+ VGND VPWR sky130_fd_sc_hd__diode_2
XFILLER_3_39 VGND VPWR sky130_fd_sc_hd__decap_12
XANTENNA__26__A chany_in_8_ VGND VPWR sky130_fd_sc_hd__diode_2
XFILLER_12_15 VGND VPWR sky130_fd_sc_hd__decap_12
XFILLER_10_108 VGND VPWR sky130_fd_sc_hd__fill_2
XFILLER_5_123 VGND VPWR sky130_fd_sc_hd__decap_12
XFILLER_23_47 VGND VPWR sky130_fd_sc_hd__fill_2
XFILLER_23_14 VGND VPWR sky130_fd_sc_hd__fill_2
XFILLER_4_93 VGND VPWR sky130_fd_sc_hd__decap_12
XANTENNA_mem_left_ipin_0.sc_dff_compact_4_.sky130_fd_sc_hd__dfrbp_1_D mem_left_ipin_0.sc_dff_compact_3_.sky130_fd_sc_hd__dfrbp_1/Q
+ VGND VPWR sky130_fd_sc_hd__diode_2
XANTENNA_mem_right_ipin_0.sc_dff_compact_4_.sky130_fd_sc_hd__dfrbp_1_D mem_right_ipin_0.sc_dff_compact_4_.sky130_fd_sc_hd__dfrbp_1/D
+ VGND VPWR sky130_fd_sc_hd__diode_2
XFILLER_1_3 VGND VPWR sky130_fd_sc_hd__decap_12
XFILLER_1_94 VGND VPWR sky130_fd_sc_hd__decap_8
X_27_ chany_in_9_ chany_out_9_ VGND VPWR sky130_fd_sc_hd__buf_2
XFILLER_28_166 VGND VPWR sky130_fd_sc_hd__decap_12
XFILLER_28_144 VGND VPWR sky130_fd_sc_hd__decap_8
XFILLER_20_15 VGND VPWR sky130_fd_sc_hd__fill_1
XFILLER_19_111 VGND VPWR sky130_fd_sc_hd__decap_8
XFILLER_33_180 VGND VPWR sky130_fd_sc_hd__decap_6
XFILLER_15_59 VGND VPWR sky130_fd_sc_hd__fill_2
XPHY_175 VGND VPWR sky130_fd_sc_hd__tapvpwrvgnd_1
XFILLER_31_106 VGND VPWR sky130_fd_sc_hd__decap_3
XPHY_164 VGND VPWR sky130_fd_sc_hd__tapvpwrvgnd_1
XPHY_153 VGND VPWR sky130_fd_sc_hd__tapvpwrvgnd_1
XPHY_142 VGND VPWR sky130_fd_sc_hd__tapvpwrvgnd_1
XPHY_131 VGND VPWR sky130_fd_sc_hd__tapvpwrvgnd_1
XFILLER_16_136 VGND VPWR sky130_fd_sc_hd__decap_12
XPHY_120 VGND VPWR sky130_fd_sc_hd__tapvpwrvgnd_1
XFILLER_30_161 VGND VPWR sky130_fd_sc_hd__decap_12
XPHY_0 VGND VPWR sky130_fd_sc_hd__decap_3
XFILLER_26_69 VGND VPWR sky130_fd_sc_hd__decap_12
XFILLER_26_36 VGND VPWR sky130_fd_sc_hd__fill_2
XFILLER_32_90 VGND VPWR sky130_fd_sc_hd__fill_2
XFILLER_8_154 VGND VPWR sky130_fd_sc_hd__decap_12
XANTENNA_mem_right_ipin_1.sc_dff_compact_2_.sky130_fd_sc_hd__dfrbp_1_D mem_right_ipin_1.sc_dff_compact_1_.sky130_fd_sc_hd__dfrbp_1/Q
+ VGND VPWR sky130_fd_sc_hd__diode_2
XFILLER_12_27 VGND VPWR sky130_fd_sc_hd__decap_4
Xclkbuf_2_0_0_prog_clk clkbuf_2_1_0_prog_clk/A clkbuf_2_0_0_prog_clk/X VGND VPWR sky130_fd_sc_hd__clkbuf_1
XFILLER_5_135 VGND VPWR sky130_fd_sc_hd__decap_12
XFILLER_23_59 VGND VPWR sky130_fd_sc_hd__fill_2
XFILLER_4_61 VGND VPWR sky130_fd_sc_hd__decap_12
Xmem_right_ipin_6.sc_dff_compact_4_.sky130_fd_sc_hd__dfrbp_1 mem_right_ipin_6.sc_dff_compact_3_.sky130_fd_sc_hd__dfrbp_1/Q
+ mem_right_ipin_6.sc_dff_compact_4_.sky130_fd_sc_hd__dfrbp_1/Q mem_right_ipin_6.sc_dff_compact_4_.sky130_fd_sc_hd__dfrbp_1/Q_N
+ pReset clkbuf_2_1_0_prog_clk/X VGND VPWR sky130_fd_sc_hd__dfrbp_1
XFILLER_13_70 VGND VPWR sky130_fd_sc_hd__fill_2
Xmem_left_ipin_0.sc_dff_compact_5_.sky130_fd_sc_hd__dfrbp_1 mem_left_ipin_0.sc_dff_compact_4_.sky130_fd_sc_hd__dfrbp_1/Q
+ mem_left_ipin_0.sc_dff_compact_5_.sky130_fd_sc_hd__dfrbp_1/Q mem_left_ipin_0.sc_dff_compact_5_.sky130_fd_sc_hd__dfrbp_1/Q_N
+ pReset clkbuf_2_1_0_prog_clk/X VGND VPWR sky130_fd_sc_hd__dfrbp_1
XFILLER_1_171 VGND VPWR sky130_fd_sc_hd__decap_12
XFILLER_18_15 VGND VPWR sky130_fd_sc_hd__fill_2
Xmem_right_ipin_3.sc_dff_compact_5_.sky130_fd_sc_hd__dfrbp_1 mem_right_ipin_3.sc_dff_compact_4_.sky130_fd_sc_hd__dfrbp_1/Q
+ mem_right_ipin_4.sc_dff_compact_0_.sky130_fd_sc_hd__dfrbp_1/D mem_right_ipin_3.sc_dff_compact_5_.sky130_fd_sc_hd__dfrbp_1/Q_N
+ pReset clkbuf_2_2_0_prog_clk/X VGND VPWR sky130_fd_sc_hd__dfrbp_1
XFILLER_27_3 VGND VPWR sky130_fd_sc_hd__decap_8
XANTENNA_mem_right_ipin_2.sc_dff_compact_0_.sky130_fd_sc_hd__dfrbp_1_D mem_right_ipin_1.sc_dff_compact_5_.sky130_fd_sc_hd__dfrbp_1/Q
+ VGND VPWR sky130_fd_sc_hd__diode_2
XFILLER_28_134 VGND VPWR sky130_fd_sc_hd__fill_1
XFILLER_28_101 VGND VPWR sky130_fd_sc_hd__fill_2
X_26_ chany_in_8_ chany_out_8_ VGND VPWR sky130_fd_sc_hd__buf_2
XFILLER_1_62 VGND VPWR sky130_fd_sc_hd__decap_6
XFILLER_1_51 VGND VPWR sky130_fd_sc_hd__decap_8
XFILLER_28_178 VGND VPWR sky130_fd_sc_hd__decap_12
XFILLER_19_123 VGND VPWR sky130_fd_sc_hd__decap_3
XFILLER_10_93 VGND VPWR sky130_fd_sc_hd__fill_2
X_09_ _09_/HI right_grid_pin_3_ VGND VPWR sky130_fd_sc_hd__conb_1
XFILLER_15_38 VGND VPWR sky130_fd_sc_hd__fill_1
XANTENNA_mem_right_ipin_0.sc_dff_compact_3_.sky130_fd_sc_hd__dfrbp_1_CLK clkbuf_2_0_0_prog_clk/X
+ VGND VPWR sky130_fd_sc_hd__diode_2
XANTENNA_mem_right_ipin_1.sc_dff_compact_4_.sky130_fd_sc_hd__dfrbp_1_CLK clkbuf_2_0_0_prog_clk/X
+ VGND VPWR sky130_fd_sc_hd__diode_2
XANTENNA_mem_right_ipin_1.sc_dff_compact_5_.sky130_fd_sc_hd__dfrbp_1_D mem_right_ipin_1.sc_dff_compact_5_.sky130_fd_sc_hd__dfrbp_1/D
+ VGND VPWR sky130_fd_sc_hd__diode_2
XPHY_165 VGND VPWR sky130_fd_sc_hd__tapvpwrvgnd_1
XFILLER_31_59 VGND VPWR sky130_fd_sc_hd__fill_2
XPHY_154 VGND VPWR sky130_fd_sc_hd__tapvpwrvgnd_1
XPHY_143 VGND VPWR sky130_fd_sc_hd__tapvpwrvgnd_1
XPHY_132 VGND VPWR sky130_fd_sc_hd__tapvpwrvgnd_1
XFILLER_16_148 VGND VPWR sky130_fd_sc_hd__decap_4
XPHY_121 VGND VPWR sky130_fd_sc_hd__tapvpwrvgnd_1
Xmem_right_ipin_1.sc_dff_compact_0_.sky130_fd_sc_hd__dfrbp_1 mem_right_ipin_1.sc_dff_compact_0_.sky130_fd_sc_hd__dfrbp_1/D
+ mem_right_ipin_1.sc_dff_compact_0_.sky130_fd_sc_hd__dfrbp_1/Q mem_right_ipin_1.sc_dff_compact_0_.sky130_fd_sc_hd__dfrbp_1/Q_N
+ pReset clkbuf_2_0_0_prog_clk/X VGND VPWR sky130_fd_sc_hd__dfrbp_1
XANTENNA_mem_right_ipin_2.sc_dff_compact_5_.sky130_fd_sc_hd__dfrbp_1_CLK clkbuf_2_2_0_prog_clk/X
+ VGND VPWR sky130_fd_sc_hd__diode_2
XPHY_110 VGND VPWR sky130_fd_sc_hd__tapvpwrvgnd_1
XFILLER_30_173 VGND VPWR sky130_fd_sc_hd__decap_4
XFILLER_15_181 VGND VPWR sky130_fd_sc_hd__fill_2
XPHY_1 VGND VPWR sky130_fd_sc_hd__decap_3
XFILLER_26_15 VGND VPWR sky130_fd_sc_hd__decap_4
XFILLER_21_184 VGND VPWR sky130_fd_sc_hd__decap_12
XFILLER_13_107 VGND VPWR sky130_fd_sc_hd__decap_12
XFILLER_8_133 VGND VPWR sky130_fd_sc_hd__fill_2
XFILLER_8_166 VGND VPWR sky130_fd_sc_hd__decap_12
XFILLER_5_147 VGND VPWR sky130_fd_sc_hd__decap_12
XFILLER_4_73 VGND VPWR sky130_fd_sc_hd__decap_12
XANTENNA_mem_right_ipin_2.sc_dff_compact_3_.sky130_fd_sc_hd__dfrbp_1_D mem_right_ipin_2.sc_dff_compact_3_.sky130_fd_sc_hd__dfrbp_1/D
+ VGND VPWR sky130_fd_sc_hd__diode_2
XFILLER_13_60 VGND VPWR sky130_fd_sc_hd__fill_1
XFILLER_29_15 VGND VPWR sky130_fd_sc_hd__fill_2
X_25_ chany_in_7_ chany_out_7_ VGND VPWR sky130_fd_sc_hd__buf_2
XFILLER_29_59 VGND VPWR sky130_fd_sc_hd__fill_2
X_08_ _08_/HI left_grid_pin_0_ VGND VPWR sky130_fd_sc_hd__conb_1
XFILLER_25_105 VGND VPWR sky130_fd_sc_hd__fill_2
XFILLER_19_179 VGND VPWR sky130_fd_sc_hd__decap_4
XANTENNA_clkbuf_2_2_0_prog_clk_A clkbuf_2_3_0_prog_clk/A VGND VPWR sky130_fd_sc_hd__diode_2
XANTENNA_mem_right_ipin_3.sc_dff_compact_1_.sky130_fd_sc_hd__dfrbp_1_D mem_right_ipin_3.sc_dff_compact_1_.sky130_fd_sc_hd__dfrbp_1/D
+ VGND VPWR sky130_fd_sc_hd__diode_2
XFILLER_25_138 VGND VPWR sky130_fd_sc_hd__fill_2
XFILLER_18_190 VGND VPWR sky130_fd_sc_hd__decap_8
XFILLER_16_116 VGND VPWR sky130_fd_sc_hd__decap_12
XFILLER_16_105 VGND VPWR sky130_fd_sc_hd__decap_6
XFILLER_15_28 VGND VPWR sky130_fd_sc_hd__decap_4
XPHY_100 VGND VPWR sky130_fd_sc_hd__tapvpwrvgnd_1
XPHY_166 VGND VPWR sky130_fd_sc_hd__tapvpwrvgnd_1
XPHY_155 VGND VPWR sky130_fd_sc_hd__tapvpwrvgnd_1
XPHY_144 VGND VPWR sky130_fd_sc_hd__tapvpwrvgnd_1
XPHY_133 VGND VPWR sky130_fd_sc_hd__tapvpwrvgnd_1
XPHY_122 VGND VPWR sky130_fd_sc_hd__tapvpwrvgnd_1
XPHY_111 VGND VPWR sky130_fd_sc_hd__tapvpwrvgnd_1
XPHY_2 VGND VPWR sky130_fd_sc_hd__decap_3
XFILLER_30_152 VGND VPWR sky130_fd_sc_hd__fill_1
XFILLER_21_196 VGND VPWR sky130_fd_sc_hd__fill_2
XFILLER_13_119 VGND VPWR sky130_fd_sc_hd__decap_3
XFILLER_7_62 VGND VPWR sky130_fd_sc_hd__fill_2
XFILLER_32_70 VGND VPWR sky130_fd_sc_hd__decap_12
XFILLER_16_93 VGND VPWR sky130_fd_sc_hd__decap_12
XFILLER_12_141 VGND VPWR sky130_fd_sc_hd__fill_2
XFILLER_8_178 VGND VPWR sky130_fd_sc_hd__decap_12
XFILLER_5_159 VGND VPWR sky130_fd_sc_hd__decap_12
XANTENNA_mem_right_ipin_5.sc_dff_compact_0_.sky130_fd_sc_hd__dfrbp_1_CLK clkbuf_2_3_0_prog_clk/X
+ VGND VPWR sky130_fd_sc_hd__diode_2
XFILLER_4_85 VGND VPWR sky130_fd_sc_hd__decap_6
XFILLER_4_181 VGND VPWR sky130_fd_sc_hd__decap_12
XANTENNA_mem_right_ipin_7.sc_dff_compact_2_.sky130_fd_sc_hd__dfrbp_1_CLK clkbuf_2_1_0_prog_clk/X
+ VGND VPWR sky130_fd_sc_hd__diode_2
XFILLER_23_39 VGND VPWR sky130_fd_sc_hd__decap_4
XANTENNA_mem_right_ipin_6.sc_dff_compact_1_.sky130_fd_sc_hd__dfrbp_1_CLK clkbuf_2_3_0_prog_clk/X
+ VGND VPWR sky130_fd_sc_hd__diode_2
XFILLER_1_184 VGND VPWR sky130_fd_sc_hd__decap_12
XANTENNA_mem_right_ipin_3.sc_dff_compact_4_.sky130_fd_sc_hd__dfrbp_1_D mem_right_ipin_3.sc_dff_compact_3_.sky130_fd_sc_hd__dfrbp_1/Q
+ VGND VPWR sky130_fd_sc_hd__diode_2
XFILLER_24_93 VGND VPWR sky130_fd_sc_hd__decap_12
XFILLER_24_60 VGND VPWR sky130_fd_sc_hd__fill_1
Xmem_right_ipin_5.sc_dff_compact_3_.sky130_fd_sc_hd__dfrbp_1 mem_right_ipin_5.sc_dff_compact_2_.sky130_fd_sc_hd__dfrbp_1/Q
+ mem_right_ipin_5.sc_dff_compact_3_.sky130_fd_sc_hd__dfrbp_1/Q mem_right_ipin_5.sc_dff_compact_3_.sky130_fd_sc_hd__dfrbp_1/Q_N
+ pReset clkbuf_2_3_0_prog_clk/X VGND VPWR sky130_fd_sc_hd__dfrbp_1
XANTENNA_mem_left_ipin_0.sc_dff_compact_2_.sky130_fd_sc_hd__dfrbp_1_CLK clkbuf_2_1_0_prog_clk/X
+ VGND VPWR sky130_fd_sc_hd__diode_2
XFILLER_20_18 VGND VPWR sky130_fd_sc_hd__decap_12
X_24_ chany_in_6_ chany_out_6_ VGND VPWR sky130_fd_sc_hd__buf_2
XFILLER_32_3 VGND VPWR sky130_fd_sc_hd__decap_12
XFILLER_19_103 VGND VPWR sky130_fd_sc_hd__fill_2
Xmem_right_ipin_2.sc_dff_compact_4_.sky130_fd_sc_hd__dfrbp_1 mem_right_ipin_2.sc_dff_compact_3_.sky130_fd_sc_hd__dfrbp_1/Q
+ mem_right_ipin_2.sc_dff_compact_5_.sky130_fd_sc_hd__dfrbp_1/D mem_right_ipin_2.sc_dff_compact_4_.sky130_fd_sc_hd__dfrbp_1/Q_N
+ pReset clkbuf_2_2_0_prog_clk/X VGND VPWR sky130_fd_sc_hd__dfrbp_1
XFILLER_10_84 VGND VPWR sky130_fd_sc_hd__decap_8
X_07_ _07_/HI left_grid_pin_10_ VGND VPWR sky130_fd_sc_hd__conb_1
XPHY_167 VGND VPWR sky130_fd_sc_hd__tapvpwrvgnd_1
XPHY_156 VGND VPWR sky130_fd_sc_hd__tapvpwrvgnd_1
XFILLER_24_150 VGND VPWR sky130_fd_sc_hd__decap_3
XPHY_145 VGND VPWR sky130_fd_sc_hd__tapvpwrvgnd_1
XPHY_134 VGND VPWR sky130_fd_sc_hd__tapvpwrvgnd_1
XPHY_123 VGND VPWR sky130_fd_sc_hd__tapvpwrvgnd_1
XFILLER_16_128 VGND VPWR sky130_fd_sc_hd__fill_2
XPHY_112 VGND VPWR sky130_fd_sc_hd__tapvpwrvgnd_1
XPHY_101 VGND VPWR sky130_fd_sc_hd__tapvpwrvgnd_1
XFILLER_30_197 VGND VPWR sky130_fd_sc_hd__fill_1
XPHY_3 VGND VPWR sky130_fd_sc_hd__decap_3
XANTENNA_mem_right_ipin_4.sc_dff_compact_2_.sky130_fd_sc_hd__dfrbp_1_D mem_right_ipin_4.sc_dff_compact_1_.sky130_fd_sc_hd__dfrbp_1/Q
+ VGND VPWR sky130_fd_sc_hd__diode_2
XFILLER_16_61 VGND VPWR sky130_fd_sc_hd__fill_1
XFILLER_32_93 VGND VPWR sky130_fd_sc_hd__decap_12
XFILLER_32_82 VGND VPWR sky130_fd_sc_hd__decap_8
XFILLER_7_190 VGND VPWR sky130_fd_sc_hd__fill_2
XFILLER_4_193 VGND VPWR sky130_fd_sc_hd__decap_4
XFILLER_2_108 VGND VPWR sky130_fd_sc_hd__decap_8
XFILLER_13_62 VGND VPWR sky130_fd_sc_hd__decap_6
XFILLER_1_196 VGND VPWR sky130_fd_sc_hd__fill_2
XFILLER_18_29 VGND VPWR sky130_fd_sc_hd__fill_2
XANTENNA_mem_right_ipin_5.sc_dff_compact_0_.sky130_fd_sc_hd__dfrbp_1_D mem_right_ipin_5.sc_dff_compact_0_.sky130_fd_sc_hd__dfrbp_1/D
+ VGND VPWR sky130_fd_sc_hd__diode_2
X_23_ chany_in_5_ chany_out_5_ VGND VPWR sky130_fd_sc_hd__buf_2
XFILLER_28_137 VGND VPWR sky130_fd_sc_hd__decap_4
XFILLER_28_126 VGND VPWR sky130_fd_sc_hd__decap_8
XANTENNA_mem_right_ipin_4.sc_dff_compact_5_.sky130_fd_sc_hd__dfrbp_1_D mem_right_ipin_4.sc_dff_compact_5_.sky130_fd_sc_hd__dfrbp_1/D
+ VGND VPWR sky130_fd_sc_hd__diode_2
XFILLER_19_94 VGND VPWR sky130_fd_sc_hd__fill_2
XFILLER_10_52 VGND VPWR sky130_fd_sc_hd__fill_1
XFILLER_33_195 VGND VPWR sky130_fd_sc_hd__decap_3
X_06_ _06_/HI left_grid_pin_12_ VGND VPWR sky130_fd_sc_hd__conb_1
XFILLER_31_18 VGND VPWR sky130_fd_sc_hd__fill_2
XFILLER_25_3 VGND VPWR sky130_fd_sc_hd__decap_6
XPHY_168 VGND VPWR sky130_fd_sc_hd__tapvpwrvgnd_1
XPHY_157 VGND VPWR sky130_fd_sc_hd__tapvpwrvgnd_1
XPHY_146 VGND VPWR sky130_fd_sc_hd__tapvpwrvgnd_1
XPHY_135 VGND VPWR sky130_fd_sc_hd__tapvpwrvgnd_1
XFILLER_21_62 VGND VPWR sky130_fd_sc_hd__decap_3
XFILLER_21_51 VGND VPWR sky130_fd_sc_hd__fill_2
XPHY_124 VGND VPWR sky130_fd_sc_hd__tapvpwrvgnd_1
XPHY_113 VGND VPWR sky130_fd_sc_hd__tapvpwrvgnd_1
XPHY_102 VGND VPWR sky130_fd_sc_hd__tapvpwrvgnd_1
XFILLER_30_154 VGND VPWR sky130_fd_sc_hd__decap_4
XFILLER_15_184 VGND VPWR sky130_fd_sc_hd__decap_12
XPHY_4 VGND VPWR sky130_fd_sc_hd__decap_3
XFILLER_7_53 VGND VPWR sky130_fd_sc_hd__fill_2
XFILLER_21_154 VGND VPWR sky130_fd_sc_hd__decap_12
XFILLER_21_121 VGND VPWR sky130_fd_sc_hd__fill_1
XANTENNA_clkbuf_1_1_0_prog_clk_A clkbuf_0_prog_clk/X VGND VPWR sky130_fd_sc_hd__diode_2
XFILLER_12_154 VGND VPWR sky130_fd_sc_hd__decap_12
XANTENNA_mem_right_ipin_5.sc_dff_compact_3_.sky130_fd_sc_hd__dfrbp_1_D mem_right_ipin_5.sc_dff_compact_2_.sky130_fd_sc_hd__dfrbp_1/Q
+ VGND VPWR sky130_fd_sc_hd__diode_2
XFILLER_4_32 VGND VPWR sky130_fd_sc_hd__decap_12
XFILLER_13_74 VGND VPWR sky130_fd_sc_hd__fill_2
XANTENNA_mem_right_ipin_7.sc_dff_compact_0_.sky130_fd_sc_hd__dfrbp_1_RESET_B pReset
+ VGND VPWR sky130_fd_sc_hd__diode_2
XFILLER_18_19 VGND VPWR sky130_fd_sc_hd__decap_3
XFILLER_24_84 VGND VPWR sky130_fd_sc_hd__decap_8
X_22_ chany_in_4_ chany_out_4_ VGND VPWR sky130_fd_sc_hd__buf_2
Xmem_right_ipin_7.sc_dff_compact_1_.sky130_fd_sc_hd__dfrbp_1 mem_right_ipin_7.sc_dff_compact_1_.sky130_fd_sc_hd__dfrbp_1/D
+ mem_right_ipin_7.sc_dff_compact_2_.sky130_fd_sc_hd__dfrbp_1/D mem_right_ipin_7.sc_dff_compact_1_.sky130_fd_sc_hd__dfrbp_1/Q_N
+ pReset clkbuf_2_1_0_prog_clk/X VGND VPWR sky130_fd_sc_hd__dfrbp_1
XANTENNA_mem_right_ipin_6.sc_dff_compact_1_.sky130_fd_sc_hd__dfrbp_1_D mem_right_ipin_6.sc_dff_compact_0_.sky130_fd_sc_hd__dfrbp_1/Q
+ VGND VPWR sky130_fd_sc_hd__diode_2
XFILLER_19_62 VGND VPWR sky130_fd_sc_hd__decap_4
XFILLER_19_40 VGND VPWR sky130_fd_sc_hd__fill_2
XFILLER_10_97 VGND VPWR sky130_fd_sc_hd__decap_4
X_05_ _05_/HI left_grid_pin_14_ VGND VPWR sky130_fd_sc_hd__conb_1
XFILLER_18_3 VGND VPWR sky130_fd_sc_hd__decap_12
Xmem_right_ipin_4.sc_dff_compact_2_.sky130_fd_sc_hd__dfrbp_1 mem_right_ipin_4.sc_dff_compact_1_.sky130_fd_sc_hd__dfrbp_1/Q
+ mem_right_ipin_4.sc_dff_compact_2_.sky130_fd_sc_hd__dfrbp_1/Q mem_right_ipin_4.sc_dff_compact_2_.sky130_fd_sc_hd__dfrbp_1/Q_N
+ pReset clkbuf_2_2_0_prog_clk/X VGND VPWR sky130_fd_sc_hd__dfrbp_1
XPHY_169 VGND VPWR sky130_fd_sc_hd__tapvpwrvgnd_1
XPHY_158 VGND VPWR sky130_fd_sc_hd__tapvpwrvgnd_1
XPHY_147 VGND VPWR sky130_fd_sc_hd__tapvpwrvgnd_1
XPHY_136 VGND VPWR sky130_fd_sc_hd__tapvpwrvgnd_1
XFILLER_21_96 VGND VPWR sky130_fd_sc_hd__decap_3
XPHY_125 VGND VPWR sky130_fd_sc_hd__tapvpwrvgnd_1
XPHY_114 VGND VPWR sky130_fd_sc_hd__tapvpwrvgnd_1
XPHY_103 VGND VPWR sky130_fd_sc_hd__tapvpwrvgnd_1
XFILLER_30_144 VGND VPWR sky130_fd_sc_hd__decap_8
XFILLER_15_196 VGND VPWR sky130_fd_sc_hd__fill_2
XPHY_5 VGND VPWR sky130_fd_sc_hd__decap_3
XFILLER_7_21 VGND VPWR sky130_fd_sc_hd__fill_1
XFILLER_26_19 VGND VPWR sky130_fd_sc_hd__fill_1
XFILLER_21_166 VGND VPWR sky130_fd_sc_hd__decap_12
Xmem_right_ipin_1.sc_dff_compact_3_.sky130_fd_sc_hd__dfrbp_1 mem_right_ipin_1.sc_dff_compact_2_.sky130_fd_sc_hd__dfrbp_1/Q