* NGSPICE file created from cby_3__1_.ext - technology: sky130A

* Black-box entry subcircuit for sky130_fd_sc_hd__dfrbp_1 abstract view
.subckt sky130_fd_sc_hd__dfrbp_1 D Q Q_N RESET_B CLK VGND VPWR
.ends

* Black-box entry subcircuit for sky130_fd_sc_hd__decap_6 abstract view
.subckt sky130_fd_sc_hd__decap_6 VGND VPWR
.ends

* Black-box entry subcircuit for sky130_fd_sc_hd__decap_12 abstract view
.subckt sky130_fd_sc_hd__decap_12 VGND VPWR
.ends

* Black-box entry subcircuit for sky130_fd_sc_hd__diode_2 abstract view
.subckt sky130_fd_sc_hd__diode_2 DIODE VGND VPWR
.ends

* Black-box entry subcircuit for sky130_fd_sc_hd__decap_8 abstract view
.subckt sky130_fd_sc_hd__decap_8 VGND VPWR
.ends

* Black-box entry subcircuit for sky130_fd_sc_hd__fill_1 abstract view
.subckt sky130_fd_sc_hd__fill_1 VGND VPWR
.ends

* Black-box entry subcircuit for sky130_fd_sc_hd__decap_4 abstract view
.subckt sky130_fd_sc_hd__decap_4 VGND VPWR
.ends

* Black-box entry subcircuit for sky130_fd_sc_hd__fill_2 abstract view
.subckt sky130_fd_sc_hd__fill_2 VGND VPWR
.ends

* Black-box entry subcircuit for sky130_fd_sc_hd__clkbuf_1 abstract view
.subckt sky130_fd_sc_hd__clkbuf_1 A X VGND VPWR
.ends

* Black-box entry subcircuit for sky130_fd_sc_hd__decap_3 abstract view
.subckt sky130_fd_sc_hd__decap_3 VGND VPWR
.ends

* Black-box entry subcircuit for sky130_fd_sc_hd__tapvpwrvgnd_1 abstract view
.subckt sky130_fd_sc_hd__tapvpwrvgnd_1 VGND VPWR
.ends

* Black-box entry subcircuit for sky130_fd_sc_hd__buf_2 abstract view
.subckt sky130_fd_sc_hd__buf_2 A X VGND VPWR
.ends

* Black-box entry subcircuit for sky130_fd_sc_hd__conb_1 abstract view
.subckt sky130_fd_sc_hd__conb_1 HI LO VGND VPWR
.ends

* Black-box entry subcircuit for sky130_fd_sc_hd__clkbuf_16 abstract view
.subckt sky130_fd_sc_hd__clkbuf_16 A X VGND VPWR
.ends

.subckt cby_3__1_ chany_top_in[0] chany_top_in[1] chany_top_in[2] chany_top_in[3]
+ chany_top_in[4] chany_top_in[5] chany_top_in[6] chany_top_in[7] chany_top_in[8]
+ chany_top_out[0] chany_top_out[1] chany_top_out[2] chany_top_out[3] chany_top_out[4]
+ chany_top_out[5] chany_top_out[6] chany_top_out[7] chany_top_out[8] right_grid_pin_0_
+ right_grid_pin_2_ right_grid_pin_4_ right_grid_pin_6_ right_grid_pin_8_ right_grid_pin_10_
+ right_grid_pin_12_ right_grid_pin_14_ chany_bottom_in[0] chany_bottom_in[1] chany_bottom_in[2]
+ chany_bottom_in[3] chany_bottom_in[4] chany_bottom_in[5] chany_bottom_in[6] chany_bottom_in[7]
+ chany_bottom_in[8] chany_bottom_out[0] chany_bottom_out[1] chany_bottom_out[2] chany_bottom_out[3]
+ chany_bottom_out[4] chany_bottom_out[5] chany_bottom_out[6] chany_bottom_out[7]
+ chany_bottom_out[8] left_grid_pin_1_ left_grid_pin_5_ left_grid_pin_9_ ccff_tail
+ ccff_head pReset prog_clk VPWR VGND
Xmem_left_ipin_4.sc_dff_compact_2_.sky130_fd_sc_hd__dfrbp_1 mem_left_ipin_4.sc_dff_compact_1_.sky130_fd_sc_hd__dfrbp_1/Q
+ mem_left_ipin_4.sc_dff_compact_3_.sky130_fd_sc_hd__dfrbp_1/D mem_left_ipin_4.sc_dff_compact_2_.sky130_fd_sc_hd__dfrbp_1/Q_N
+ pReset clkbuf_3_6_0_prog_clk/X VGND VPWR sky130_fd_sc_hd__dfrbp_1
XFILLER_13_177 VGND VPWR sky130_fd_sc_hd__decap_6
XFILLER_13_188 VGND VPWR sky130_fd_sc_hd__decap_12
XFILLER_5_354 VGND VPWR sky130_fd_sc_hd__decap_12
XFILLER_3_89 VGND VPWR sky130_fd_sc_hd__decap_12
Xmem_left_ipin_1.sc_dff_compact_3_.sky130_fd_sc_hd__dfrbp_1 mem_left_ipin_1.sc_dff_compact_2_.sky130_fd_sc_hd__dfrbp_1/Q
+ mem_left_ipin_1.sc_dff_compact_3_.sky130_fd_sc_hd__dfrbp_1/Q mem_left_ipin_1.sc_dff_compact_3_.sky130_fd_sc_hd__dfrbp_1/Q_N
+ pReset clkbuf_3_5_0_prog_clk/X VGND VPWR sky130_fd_sc_hd__dfrbp_1
XANTENNA_mem_left_ipin_7.sc_dff_compact_3_.sky130_fd_sc_hd__dfrbp_1_D mem_left_ipin_7.sc_dff_compact_3_.sky130_fd_sc_hd__dfrbp_1/D
+ VGND VPWR sky130_fd_sc_hd__diode_2
XFILLER_6_129 VGND VPWR sky130_fd_sc_hd__decap_12
XFILLER_12_32 VGND VPWR sky130_fd_sc_hd__decap_8
XFILLER_2_335 VGND VPWR sky130_fd_sc_hd__fill_1
XFILLER_12_87 VGND VPWR sky130_fd_sc_hd__decap_4
XFILLER_18_247 VGND VPWR sky130_fd_sc_hd__decap_4
XFILLER_5_184 VGND VPWR sky130_fd_sc_hd__decap_12
XFILLER_24_239 VGND VPWR sky130_fd_sc_hd__decap_12
XFILLER_23_250 VGND VPWR sky130_fd_sc_hd__decap_12
XFILLER_2_154 VGND VPWR sky130_fd_sc_hd__fill_2
XFILLER_2_143 VGND VPWR sky130_fd_sc_hd__decap_8
XFILLER_21_209 VGND VPWR sky130_fd_sc_hd__decap_12
XANTENNA_clkbuf_2_1_0_prog_clk_A clkbuf_0_prog_clk/X VGND VPWR sky130_fd_sc_hd__diode_2
Xclkbuf_3_4_0_prog_clk clkbuf_2_2_0_prog_clk/X clkbuf_3_4_0_prog_clk/X VGND VPWR sky130_fd_sc_hd__clkbuf_1
XFILLER_11_220 VGND VPWR sky130_fd_sc_hd__decap_8
XFILLER_11_275 VGND VPWR sky130_fd_sc_hd__decap_12
XFILLER_7_257 VGND VPWR sky130_fd_sc_hd__decap_12
XFILLER_25_323 VGND VPWR sky130_fd_sc_hd__decap_12
XFILLER_20_32 VGND VPWR sky130_fd_sc_hd__fill_2
XFILLER_20_76 VGND VPWR sky130_fd_sc_hd__decap_12
XFILLER_3_293 VGND VPWR sky130_fd_sc_hd__decap_8
XFILLER_6_89 VGND VPWR sky130_fd_sc_hd__decap_3
XFILLER_13_3 VGND VPWR sky130_fd_sc_hd__decap_12
XANTENNA_mem_left_ipin_4.sc_dff_compact_0_.sky130_fd_sc_hd__dfrbp_1_CLK clkbuf_3_7_0_prog_clk/X
+ VGND VPWR sky130_fd_sc_hd__diode_2
XFILLER_22_337 VGND VPWR sky130_fd_sc_hd__fill_2
XFILLER_1_208 VGND VPWR sky130_fd_sc_hd__decap_8
XANTENNA_mem_left_ipin_5.sc_dff_compact_1_.sky130_fd_sc_hd__dfrbp_1_CLK clkbuf_3_3_0_prog_clk/X
+ VGND VPWR sky130_fd_sc_hd__diode_2
XFILLER_13_359 VGND VPWR sky130_fd_sc_hd__decap_6
XFILLER_15_98 VGND VPWR sky130_fd_sc_hd__decap_12
XFILLER_0_230 VGND VPWR sky130_fd_sc_hd__decap_12
XANTENNA_mem_left_ipin_6.sc_dff_compact_2_.sky130_fd_sc_hd__dfrbp_1_CLK clkbuf_3_2_0_prog_clk/X
+ VGND VPWR sky130_fd_sc_hd__diode_2
XFILLER_16_142 VGND VPWR sky130_fd_sc_hd__decap_8
XPHY_170 VGND VPWR sky130_fd_sc_hd__tapvpwrvgnd_1
XANTENNA_mem_left_ipin_7.sc_dff_compact_3_.sky130_fd_sc_hd__dfrbp_1_CLK clkbuf_3_0_0_prog_clk/X
+ VGND VPWR sky130_fd_sc_hd__diode_2
XPHY_181 VGND VPWR sky130_fd_sc_hd__tapvpwrvgnd_1
XPHY_192 VGND VPWR sky130_fd_sc_hd__tapvpwrvgnd_1
XFILLER_13_123 VGND VPWR sky130_fd_sc_hd__decap_3
XFILLER_9_138 VGND VPWR sky130_fd_sc_hd__fill_2
XFILLER_3_46 VGND VPWR sky130_fd_sc_hd__decap_8
XFILLER_3_35 VGND VPWR sky130_fd_sc_hd__fill_1
XFILLER_18_215 VGND VPWR sky130_fd_sc_hd__fill_2
XFILLER_5_196 VGND VPWR sky130_fd_sc_hd__decap_12
XFILLER_1_391 VGND VPWR sky130_fd_sc_hd__decap_3
XFILLER_17_270 VGND VPWR sky130_fd_sc_hd__fill_2
XFILLER_23_32 VGND VPWR sky130_fd_sc_hd__decap_12
XFILLER_23_262 VGND VPWR sky130_fd_sc_hd__decap_12
XFILLER_2_111 VGND VPWR sky130_fd_sc_hd__decap_12
XFILLER_23_98 VGND VPWR sky130_fd_sc_hd__decap_12
XANTENNA_mem_right_ipin_0.sc_dff_compact_4_.sky130_fd_sc_hd__dfrbp_1_RESET_B pReset
+ VGND VPWR sky130_fd_sc_hd__diode_2
XFILLER_20_254 VGND VPWR sky130_fd_sc_hd__decap_6
XFILLER_20_276 VGND VPWR sky130_fd_sc_hd__fill_2
XFILLER_18_32 VGND VPWR sky130_fd_sc_hd__decap_12
XFILLER_11_287 VGND VPWR sky130_fd_sc_hd__decap_12
XFILLER_7_269 VGND VPWR sky130_fd_sc_hd__decap_3
XFILLER_19_343 VGND VPWR sky130_fd_sc_hd__fill_2
XFILLER_19_365 VGND VPWR sky130_fd_sc_hd__fill_1
XFILLER_25_335 VGND VPWR sky130_fd_sc_hd__decap_6
XFILLER_20_88 VGND VPWR sky130_fd_sc_hd__decap_4
XFILLER_16_335 VGND VPWR sky130_fd_sc_hd__fill_1
XFILLER_6_57 VGND VPWR sky130_fd_sc_hd__decap_12
XFILLER_19_184 VGND VPWR sky130_fd_sc_hd__decap_8
XFILLER_25_187 VGND VPWR sky130_fd_sc_hd__decap_12
XFILLER_15_33 VGND VPWR sky130_fd_sc_hd__fill_2
XFILLER_0_242 VGND VPWR sky130_fd_sc_hd__decap_6
XANTENNA_mem_left_ipin_7.sc_dff_compact_0_.sky130_fd_sc_hd__dfrbp_1_RESET_B pReset
+ VGND VPWR sky130_fd_sc_hd__diode_2
XFILLER_12_371 VGND VPWR sky130_fd_sc_hd__decap_12
XFILLER_16_154 VGND VPWR sky130_fd_sc_hd__decap_12
XPHY_160 VGND VPWR sky130_fd_sc_hd__tapvpwrvgnd_1
XPHY_171 VGND VPWR sky130_fd_sc_hd__tapvpwrvgnd_1
XPHY_182 VGND VPWR sky130_fd_sc_hd__tapvpwrvgnd_1
XPHY_193 VGND VPWR sky130_fd_sc_hd__tapvpwrvgnd_1
XFILLER_22_135 VGND VPWR sky130_fd_sc_hd__decap_12
XFILLER_22_179 VGND VPWR sky130_fd_sc_hd__decap_4
Xmem_left_ipin_6.sc_dff_compact_0_.sky130_fd_sc_hd__dfrbp_1 mem_left_ipin_5.sc_dff_compact_5_.sky130_fd_sc_hd__dfrbp_1/Q
+ mem_left_ipin_6.sc_dff_compact_0_.sky130_fd_sc_hd__dfrbp_1/Q mem_left_ipin_6.sc_dff_compact_0_.sky130_fd_sc_hd__dfrbp_1/Q_N
+ pReset clkbuf_3_2_0_prog_clk/X VGND VPWR sky130_fd_sc_hd__dfrbp_1
XFILLER_9_117 VGND VPWR sky130_fd_sc_hd__decap_4
XFILLER_5_367 VGND VPWR sky130_fd_sc_hd__decap_12
XANTENNA_mem_right_ipin_0.sc_dff_compact_4_.sky130_fd_sc_hd__dfrbp_1_CLK clkbuf_3_1_0_prog_clk/X
+ VGND VPWR sky130_fd_sc_hd__diode_2
XFILLER_10_105 VGND VPWR sky130_fd_sc_hd__decap_8
XFILLER_10_116 VGND VPWR sky130_fd_sc_hd__decap_12
Xmem_left_ipin_3.sc_dff_compact_1_.sky130_fd_sc_hd__dfrbp_1 mem_left_ipin_3.sc_dff_compact_1_.sky130_fd_sc_hd__dfrbp_1/D
+ mem_left_ipin_3.sc_dff_compact_1_.sky130_fd_sc_hd__dfrbp_1/Q mem_left_ipin_3.sc_dff_compact_1_.sky130_fd_sc_hd__dfrbp_1/Q_N
+ pReset clkbuf_3_7_0_prog_clk/X VGND VPWR sky130_fd_sc_hd__dfrbp_1
XFILLER_2_337 VGND VPWR sky130_fd_sc_hd__fill_2
XFILLER_5_164 VGND VPWR sky130_fd_sc_hd__decap_12
XFILLER_5_131 VGND VPWR sky130_fd_sc_hd__fill_2
XFILLER_5_120 VGND VPWR sky130_fd_sc_hd__fill_2
XFILLER_15_208 VGND VPWR sky130_fd_sc_hd__decap_8
XFILLER_15_219 VGND VPWR sky130_fd_sc_hd__fill_2
Xmem_left_ipin_0.sc_dff_compact_2_.sky130_fd_sc_hd__dfrbp_1 mem_left_ipin_0.sc_dff_compact_1_.sky130_fd_sc_hd__dfrbp_1/Q
+ mem_left_ipin_0.sc_dff_compact_3_.sky130_fd_sc_hd__dfrbp_1/D mem_left_ipin_0.sc_dff_compact_2_.sky130_fd_sc_hd__dfrbp_1/Q_N
+ pReset clkbuf_3_4_0_prog_clk/X VGND VPWR sky130_fd_sc_hd__dfrbp_1
XFILLER_23_274 VGND VPWR sky130_fd_sc_hd__decap_12
XFILLER_23_296 VGND VPWR sky130_fd_sc_hd__decap_8
XFILLER_3_3 VGND VPWR sky130_fd_sc_hd__decap_12
XFILLER_2_123 VGND VPWR sky130_fd_sc_hd__decap_12
XFILLER_0_15 VGND VPWR sky130_fd_sc_hd__decap_12
XFILLER_9_24 VGND VPWR sky130_fd_sc_hd__fill_2
XFILLER_14_274 VGND VPWR sky130_fd_sc_hd__fill_1
XFILLER_9_57 VGND VPWR sky130_fd_sc_hd__decap_4
XFILLER_20_200 VGND VPWR sky130_fd_sc_hd__decap_12
XFILLER_18_44 VGND VPWR sky130_fd_sc_hd__decap_12
XFILLER_7_226 VGND VPWR sky130_fd_sc_hd__fill_2
XFILLER_11_233 VGND VPWR sky130_fd_sc_hd__fill_2
XFILLER_11_299 VGND VPWR sky130_fd_sc_hd__decap_6
Xmem_right_ipin_0.sc_dff_compact_3_.sky130_fd_sc_hd__dfrbp_1 mem_right_ipin_0.sc_dff_compact_2_.sky130_fd_sc_hd__dfrbp_1/Q
+ mem_right_ipin_0.sc_dff_compact_3_.sky130_fd_sc_hd__dfrbp_1/Q mem_right_ipin_0.sc_dff_compact_3_.sky130_fd_sc_hd__dfrbp_1/Q_N
+ pReset clkbuf_3_3_0_prog_clk/X VGND VPWR sky130_fd_sc_hd__dfrbp_1
XFILLER_6_69 VGND VPWR sky130_fd_sc_hd__decap_12
XFILLER_3_240 VGND VPWR sky130_fd_sc_hd__decap_4
XFILLER_19_196 VGND VPWR sky130_fd_sc_hd__fill_2
XFILLER_15_391 VGND VPWR sky130_fd_sc_hd__decap_3
XFILLER_22_328 VGND VPWR sky130_fd_sc_hd__decap_8
XFILLER_25_199 VGND VPWR sky130_fd_sc_hd__decap_12
XFILLER_13_306 VGND VPWR sky130_fd_sc_hd__decap_12
XFILLER_13_339 VGND VPWR sky130_fd_sc_hd__fill_2
XFILLER_16_166 VGND VPWR sky130_fd_sc_hd__decap_12
XFILLER_12_383 VGND VPWR sky130_fd_sc_hd__decap_8
XPHY_150 VGND VPWR sky130_fd_sc_hd__tapvpwrvgnd_1
XPHY_161 VGND VPWR sky130_fd_sc_hd__tapvpwrvgnd_1
XPHY_172 VGND VPWR sky130_fd_sc_hd__tapvpwrvgnd_1
XPHY_183 VGND VPWR sky130_fd_sc_hd__tapvpwrvgnd_1
XPHY_194 VGND VPWR sky130_fd_sc_hd__tapvpwrvgnd_1
Xclkbuf_2_1_0_prog_clk clkbuf_0_prog_clk/X clkbuf_3_3_0_prog_clk/A VGND VPWR sky130_fd_sc_hd__clkbuf_1
XFILLER_22_147 VGND VPWR sky130_fd_sc_hd__decap_6
XFILLER_5_379 VGND VPWR sky130_fd_sc_hd__decap_12
XFILLER_3_59 VGND VPWR sky130_fd_sc_hd__fill_2
XFILLER_3_15 VGND VPWR sky130_fd_sc_hd__decap_12
XFILLER_10_128 VGND VPWR sky130_fd_sc_hd__decap_12
XFILLER_2_316 VGND VPWR sky130_fd_sc_hd__fill_1
XFILLER_5_176 VGND VPWR sky130_fd_sc_hd__decap_6
XFILLER_1_360 VGND VPWR sky130_fd_sc_hd__decap_6
XFILLER_23_286 VGND VPWR sky130_fd_sc_hd__decap_6
XFILLER_2_179 VGND VPWR sky130_fd_sc_hd__decap_12
XFILLER_2_135 VGND VPWR sky130_fd_sc_hd__decap_6
XANTENNA__12__A chany_top_in[7] VGND VPWR sky130_fd_sc_hd__diode_2
XFILLER_0_27 VGND VPWR sky130_fd_sc_hd__decap_4
XFILLER_20_212 VGND VPWR sky130_fd_sc_hd__fill_2
XFILLER_11_245 VGND VPWR sky130_fd_sc_hd__decap_3
XFILLER_19_367 VGND VPWR sky130_fd_sc_hd__decap_12
XFILLER_25_304 VGND VPWR sky130_fd_sc_hd__decap_6
XANTENNA_mem_left_ipin_6.sc_dff_compact_0_.sky130_fd_sc_hd__dfrbp_1_RESET_B pReset
+ VGND VPWR sky130_fd_sc_hd__diode_2
XFILLER_16_337 VGND VPWR sky130_fd_sc_hd__fill_2
XFILLER_6_15 VGND VPWR sky130_fd_sc_hd__decap_12
Xclkbuf_3_3_0_prog_clk clkbuf_3_3_0_prog_clk/A clkbuf_3_3_0_prog_clk/X VGND VPWR sky130_fd_sc_hd__clkbuf_1
XFILLER_25_156 VGND VPWR sky130_fd_sc_hd__decap_12
XFILLER_13_318 VGND VPWR sky130_fd_sc_hd__decap_12
XFILLER_15_57 VGND VPWR sky130_fd_sc_hd__decap_4
XANTENNA__20__A chany_bottom_in[8] VGND VPWR sky130_fd_sc_hd__diode_2
XFILLER_0_211 VGND VPWR sky130_fd_sc_hd__decap_6
XFILLER_16_134 VGND VPWR sky130_fd_sc_hd__fill_2
XFILLER_16_178 VGND VPWR sky130_fd_sc_hd__decap_12
Xmem_left_ipin_7.sc_dff_compact_4_.sky130_fd_sc_hd__dfrbp_1 mem_left_ipin_7.sc_dff_compact_4_.sky130_fd_sc_hd__dfrbp_1/D
+ mem_left_ipin_7.sc_dff_compact_5_.sky130_fd_sc_hd__dfrbp_1/D mem_left_ipin_7.sc_dff_compact_4_.sky130_fd_sc_hd__dfrbp_1/Q_N
+ pReset clkbuf_3_0_0_prog_clk/X VGND VPWR sky130_fd_sc_hd__dfrbp_1
XPHY_140 VGND VPWR sky130_fd_sc_hd__tapvpwrvgnd_1
XPHY_151 VGND VPWR sky130_fd_sc_hd__tapvpwrvgnd_1
XPHY_162 VGND VPWR sky130_fd_sc_hd__tapvpwrvgnd_1
XPHY_173 VGND VPWR sky130_fd_sc_hd__tapvpwrvgnd_1
XPHY_184 VGND VPWR sky130_fd_sc_hd__tapvpwrvgnd_1
XPHY_195 VGND VPWR sky130_fd_sc_hd__tapvpwrvgnd_1
XFILLER_11_3 VGND VPWR sky130_fd_sc_hd__decap_12
XANTENNA_mem_left_ipin_0.sc_dff_compact_3_.sky130_fd_sc_hd__dfrbp_1_CLK clkbuf_3_4_0_prog_clk/X
+ VGND VPWR sky130_fd_sc_hd__diode_2
XFILLER_5_303 VGND VPWR sky130_fd_sc_hd__fill_2
XANTENNA_mem_left_ipin_1.sc_dff_compact_4_.sky130_fd_sc_hd__dfrbp_1_CLK clkbuf_3_5_0_prog_clk/X
+ VGND VPWR sky130_fd_sc_hd__diode_2
XANTENNA__15__A chany_top_in[4] VGND VPWR sky130_fd_sc_hd__diode_2
XFILLER_21_181 VGND VPWR sky130_fd_sc_hd__fill_2
XFILLER_3_38 VGND VPWR sky130_fd_sc_hd__fill_2
XFILLER_3_27 VGND VPWR sky130_fd_sc_hd__decap_8
XANTENNA_mem_left_ipin_2.sc_dff_compact_5_.sky130_fd_sc_hd__dfrbp_1_CLK clkbuf_3_7_0_prog_clk/X
+ VGND VPWR sky130_fd_sc_hd__diode_2
Xmem_left_ipin_4.sc_dff_compact_5_.sky130_fd_sc_hd__dfrbp_1 mem_left_ipin_4.sc_dff_compact_4_.sky130_fd_sc_hd__dfrbp_1/Q
+ mem_left_ipin_5.sc_dff_compact_0_.sky130_fd_sc_hd__dfrbp_1/D mem_left_ipin_4.sc_dff_compact_5_.sky130_fd_sc_hd__dfrbp_1/Q_N
+ pReset clkbuf_3_6_0_prog_clk/X VGND VPWR sky130_fd_sc_hd__dfrbp_1
XFILLER_8_152 VGND VPWR sky130_fd_sc_hd__fill_1
Xmem_left_ipin_2.sc_dff_compact_0_.sky130_fd_sc_hd__dfrbp_1 mem_left_ipin_2.sc_dff_compact_0_.sky130_fd_sc_hd__dfrbp_1/D
+ mem_left_ipin_2.sc_dff_compact_0_.sky130_fd_sc_hd__dfrbp_1/Q mem_left_ipin_2.sc_dff_compact_0_.sky130_fd_sc_hd__dfrbp_1/Q_N
+ pReset clkbuf_3_5_0_prog_clk/X VGND VPWR sky130_fd_sc_hd__dfrbp_1
XFILLER_9_15 VGND VPWR sky130_fd_sc_hd__decap_6
XFILLER_14_254 VGND VPWR sky130_fd_sc_hd__decap_12
XFILLER_14_276 VGND VPWR sky130_fd_sc_hd__decap_12
XFILLER_18_79 VGND VPWR sky130_fd_sc_hd__decap_12
XANTENNA__23__A chany_bottom_in[5] VGND VPWR sky130_fd_sc_hd__diode_2
XFILLER_19_379 VGND VPWR sky130_fd_sc_hd__decap_12
X_28_ chany_bottom_in[0] chany_top_out[0] VGND VPWR sky130_fd_sc_hd__buf_2
Xmem_right_ipin_2.sc_dff_compact_1_.sky130_fd_sc_hd__dfrbp_1 mem_right_ipin_2.sc_dff_compact_0_.sky130_fd_sc_hd__dfrbp_1/Q
+ ccff_tail mem_right_ipin_2.sc_dff_compact_1_.sky130_fd_sc_hd__dfrbp_1/Q_N pReset
+ clkbuf_3_1_0_prog_clk/X VGND VPWR sky130_fd_sc_hd__dfrbp_1
XANTENNA__18__A chany_top_in[1] VGND VPWR sky130_fd_sc_hd__diode_2
XFILLER_16_305 VGND VPWR sky130_fd_sc_hd__decap_12
XFILLER_24_393 VGND VPWR sky130_fd_sc_hd__fill_1
XFILLER_6_27 VGND VPWR sky130_fd_sc_hd__decap_4
XFILLER_10_91 VGND VPWR sky130_fd_sc_hd__fill_1
XFILLER_19_110 VGND VPWR sky130_fd_sc_hd__decap_12
XANTENNA_mem_left_ipin_0.sc_dff_compact_1_.sky130_fd_sc_hd__dfrbp_1_D mem_left_ipin_0.sc_dff_compact_0_.sky130_fd_sc_hd__dfrbp_1/Q
+ VGND VPWR sky130_fd_sc_hd__diode_2
XFILLER_25_168 VGND VPWR sky130_fd_sc_hd__decap_12
XFILLER_21_330 VGND VPWR sky130_fd_sc_hd__decap_6
XANTENNA_mem_right_ipin_0.sc_dff_compact_1_.sky130_fd_sc_hd__dfrbp_1_D mem_right_ipin_0.sc_dff_compact_1_.sky130_fd_sc_hd__dfrbp_1/D
+ VGND VPWR sky130_fd_sc_hd__diode_2
XPHY_130 VGND VPWR sky130_fd_sc_hd__tapvpwrvgnd_1
XPHY_141 VGND VPWR sky130_fd_sc_hd__tapvpwrvgnd_1
XPHY_152 VGND VPWR sky130_fd_sc_hd__tapvpwrvgnd_1
XFILLER_16_102 VGND VPWR sky130_fd_sc_hd__decap_12
XFILLER_24_190 VGND VPWR sky130_fd_sc_hd__decap_12
XPHY_163 VGND VPWR sky130_fd_sc_hd__tapvpwrvgnd_1
XPHY_174 VGND VPWR sky130_fd_sc_hd__tapvpwrvgnd_1
XPHY_185 VGND VPWR sky130_fd_sc_hd__tapvpwrvgnd_1
XPHY_196 VGND VPWR sky130_fd_sc_hd__tapvpwrvgnd_1
XFILLER_22_105 VGND VPWR sky130_fd_sc_hd__decap_3
XANTENNA_mem_right_ipin_0.sc_dff_compact_5_.sky130_fd_sc_hd__dfrbp_1_RESET_B pReset
+ VGND VPWR sky130_fd_sc_hd__diode_2
XFILLER_12_15 VGND VPWR sky130_fd_sc_hd__decap_12
XANTENNA__26__A chany_bottom_in[2] VGND VPWR sky130_fd_sc_hd__diode_2
XFILLER_5_123 VGND VPWR sky130_fd_sc_hd__decap_8
XFILLER_5_112 VGND VPWR sky130_fd_sc_hd__decap_8
XFILLER_1_340 VGND VPWR sky130_fd_sc_hd__fill_2
XFILLER_17_274 VGND VPWR sky130_fd_sc_hd__decap_12
XFILLER_4_93 VGND VPWR sky130_fd_sc_hd__fill_2
XFILLER_23_200 VGND VPWR sky130_fd_sc_hd__decap_12
XFILLER_23_47 VGND VPWR sky130_fd_sc_hd__decap_12
XFILLER_14_266 VGND VPWR sky130_fd_sc_hd__decap_8
XFILLER_14_288 VGND VPWR sky130_fd_sc_hd__decap_12
XANTENNA_mem_left_ipin_5.sc_dff_compact_0_.sky130_fd_sc_hd__dfrbp_1_RESET_B pReset
+ VGND VPWR sky130_fd_sc_hd__diode_2
XFILLER_9_292 VGND VPWR sky130_fd_sc_hd__decap_12
XANTENNA_mem_left_ipin_0.sc_dff_compact_4_.sky130_fd_sc_hd__dfrbp_1_D mem_left_ipin_0.sc_dff_compact_4_.sky130_fd_sc_hd__dfrbp_1/D
+ VGND VPWR sky130_fd_sc_hd__diode_2
XANTENNA_mem_left_ipin_5.sc_dff_compact_0_.sky130_fd_sc_hd__dfrbp_1_CLK clkbuf_3_6_0_prog_clk/X
+ VGND VPWR sky130_fd_sc_hd__diode_2
XFILLER_1_3 VGND VPWR sky130_fd_sc_hd__decap_12
XANTENNA_mem_left_ipin_6.sc_dff_compact_1_.sky130_fd_sc_hd__dfrbp_1_CLK clkbuf_3_2_0_prog_clk/X
+ VGND VPWR sky130_fd_sc_hd__diode_2
XANTENNA_clkbuf_3_3_0_prog_clk_A clkbuf_3_3_0_prog_clk/A VGND VPWR sky130_fd_sc_hd__diode_2
XANTENNA_mem_left_ipin_7.sc_dff_compact_1_.sky130_fd_sc_hd__dfrbp_1_RESET_B pReset
+ VGND VPWR sky130_fd_sc_hd__diode_2
XANTENNA_mem_right_ipin_0.sc_dff_compact_4_.sky130_fd_sc_hd__dfrbp_1_D mem_right_ipin_0.sc_dff_compact_3_.sky130_fd_sc_hd__dfrbp_1/Q
+ VGND VPWR sky130_fd_sc_hd__diode_2
XFILLER_19_336 VGND VPWR sky130_fd_sc_hd__fill_1
XFILLER_19_347 VGND VPWR sky130_fd_sc_hd__decap_12
XANTENNA_mem_left_ipin_7.sc_dff_compact_2_.sky130_fd_sc_hd__dfrbp_1_CLK clkbuf_3_0_0_prog_clk/X
+ VGND VPWR sky130_fd_sc_hd__diode_2
XFILLER_6_284 VGND VPWR sky130_fd_sc_hd__fill_1
XFILLER_1_50 VGND VPWR sky130_fd_sc_hd__fill_2
X_27_ chany_bottom_in[1] chany_top_out[1] VGND VPWR sky130_fd_sc_hd__buf_2
XFILLER_20_15 VGND VPWR sky130_fd_sc_hd__decap_12
XFILLER_24_361 VGND VPWR sky130_fd_sc_hd__decap_12
XFILLER_16_317 VGND VPWR sky130_fd_sc_hd__decap_12
XFILLER_25_125 VGND VPWR sky130_fd_sc_hd__decap_12
XFILLER_15_15 VGND VPWR sky130_fd_sc_hd__decap_12
XFILLER_15_37 VGND VPWR sky130_fd_sc_hd__fill_2
XFILLER_16_114 VGND VPWR sky130_fd_sc_hd__decap_12
XPHY_120 VGND VPWR sky130_fd_sc_hd__tapvpwrvgnd_1
XPHY_131 VGND VPWR sky130_fd_sc_hd__tapvpwrvgnd_1
XPHY_142 VGND VPWR sky130_fd_sc_hd__tapvpwrvgnd_1
XPHY_153 VGND VPWR sky130_fd_sc_hd__tapvpwrvgnd_1
XPHY_164 VGND VPWR sky130_fd_sc_hd__tapvpwrvgnd_1
XPHY_175 VGND VPWR sky130_fd_sc_hd__tapvpwrvgnd_1
XFILLER_8_335 VGND VPWR sky130_fd_sc_hd__fill_1
XPHY_186 VGND VPWR sky130_fd_sc_hd__tapvpwrvgnd_1
XPHY_197 VGND VPWR sky130_fd_sc_hd__tapvpwrvgnd_1
XPHY_0 VGND VPWR sky130_fd_sc_hd__decap_3
XANTENNA_mem_left_ipin_1.sc_dff_compact_2_.sky130_fd_sc_hd__dfrbp_1_D mem_left_ipin_1.sc_dff_compact_1_.sky130_fd_sc_hd__dfrbp_1/Q
+ VGND VPWR sky130_fd_sc_hd__diode_2
XFILLER_13_128 VGND VPWR sky130_fd_sc_hd__fill_2
XFILLER_8_132 VGND VPWR sky130_fd_sc_hd__fill_2
XFILLER_8_154 VGND VPWR sky130_fd_sc_hd__decap_12
XFILLER_4_393 VGND VPWR sky130_fd_sc_hd__fill_1
Xmem_left_ipin_6.sc_dff_compact_3_.sky130_fd_sc_hd__dfrbp_1 mem_left_ipin_6.sc_dff_compact_2_.sky130_fd_sc_hd__dfrbp_1/Q
+ mem_left_ipin_6.sc_dff_compact_3_.sky130_fd_sc_hd__dfrbp_1/Q mem_left_ipin_6.sc_dff_compact_3_.sky130_fd_sc_hd__dfrbp_1/Q_N
+ pReset clkbuf_3_2_0_prog_clk/X VGND VPWR sky130_fd_sc_hd__dfrbp_1
XFILLER_12_27 VGND VPWR sky130_fd_sc_hd__decap_4
XFILLER_2_319 VGND VPWR sky130_fd_sc_hd__decap_12
XFILLER_5_135 VGND VPWR sky130_fd_sc_hd__fill_2
Xclkbuf_2_0_0_prog_clk clkbuf_0_prog_clk/X clkbuf_3_1_0_prog_clk/A VGND VPWR sky130_fd_sc_hd__clkbuf_1
XFILLER_17_242 VGND VPWR sky130_fd_sc_hd__fill_2
XFILLER_17_286 VGND VPWR sky130_fd_sc_hd__decap_12
XFILLER_4_190 VGND VPWR sky130_fd_sc_hd__decap_12
XFILLER_4_72 VGND VPWR sky130_fd_sc_hd__decap_12
Xmem_left_ipin_3.sc_dff_compact_4_.sky130_fd_sc_hd__dfrbp_1 mem_left_ipin_3.sc_dff_compact_3_.sky130_fd_sc_hd__dfrbp_1/Q
+ mem_left_ipin_3.sc_dff_compact_4_.sky130_fd_sc_hd__dfrbp_1/Q mem_left_ipin_3.sc_dff_compact_4_.sky130_fd_sc_hd__dfrbp_1/Q_N
+ pReset clkbuf_3_7_0_prog_clk/X VGND VPWR sky130_fd_sc_hd__dfrbp_1
XFILLER_23_15 VGND VPWR sky130_fd_sc_hd__decap_12
XFILLER_23_59 VGND VPWR sky130_fd_sc_hd__fill_2
XFILLER_23_212 VGND VPWR sky130_fd_sc_hd__decap_12
XFILLER_23_245 VGND VPWR sky130_fd_sc_hd__fill_2
XFILLER_2_105 VGND VPWR sky130_fd_sc_hd__decap_3
XFILLER_9_28 VGND VPWR sky130_fd_sc_hd__fill_2
XFILLER_1_160 VGND VPWR sky130_fd_sc_hd__fill_2
XFILLER_1_182 VGND VPWR sky130_fd_sc_hd__fill_1
XFILLER_20_215 VGND VPWR sky130_fd_sc_hd__decap_12
Xmem_left_ipin_0.sc_dff_compact_5_.sky130_fd_sc_hd__dfrbp_1 mem_left_ipin_0.sc_dff_compact_5_.sky130_fd_sc_hd__dfrbp_1/D
+ mem_left_ipin_1.sc_dff_compact_0_.sky130_fd_sc_hd__dfrbp_1/D mem_left_ipin_0.sc_dff_compact_5_.sky130_fd_sc_hd__dfrbp_1/Q_N
+ pReset clkbuf_3_4_0_prog_clk/X VGND VPWR sky130_fd_sc_hd__dfrbp_1
XFILLER_18_15 VGND VPWR sky130_fd_sc_hd__decap_12
XANTENNA_mem_left_ipin_2.sc_dff_compact_0_.sky130_fd_sc_hd__dfrbp_1_D mem_left_ipin_2.sc_dff_compact_0_.sky130_fd_sc_hd__dfrbp_1/D
+ VGND VPWR sky130_fd_sc_hd__diode_2
XFILLER_7_208 VGND VPWR sky130_fd_sc_hd__decap_12
XFILLER_11_237 VGND VPWR sky130_fd_sc_hd__fill_2
XFILLER_19_359 VGND VPWR sky130_fd_sc_hd__decap_6
XANTENNA_mem_right_ipin_2.sc_dff_compact_0_.sky130_fd_sc_hd__dfrbp_1_D mem_right_ipin_1.sc_dff_compact_1_.sky130_fd_sc_hd__dfrbp_1/Q
+ VGND VPWR sky130_fd_sc_hd__diode_2
XFILLER_6_274 VGND VPWR sky130_fd_sc_hd__fill_1
XFILLER_1_62 VGND VPWR sky130_fd_sc_hd__decap_12
X_26_ chany_bottom_in[2] chany_top_out[2] VGND VPWR sky130_fd_sc_hd__buf_2
XFILLER_20_27 VGND VPWR sky130_fd_sc_hd__decap_4
XFILLER_20_38 VGND VPWR sky130_fd_sc_hd__decap_12
XFILLER_24_373 VGND VPWR sky130_fd_sc_hd__decap_12
XANTENNA_mem_left_ipin_1.sc_dff_compact_5_.sky130_fd_sc_hd__dfrbp_1_D mem_left_ipin_1.sc_dff_compact_4_.sky130_fd_sc_hd__dfrbp_1/Q
+ VGND VPWR sky130_fd_sc_hd__diode_2
XFILLER_16_329 VGND VPWR sky130_fd_sc_hd__decap_6
XFILLER_3_211 VGND VPWR sky130_fd_sc_hd__fill_2
XFILLER_10_71 VGND VPWR sky130_fd_sc_hd__decap_12
XFILLER_10_93 VGND VPWR sky130_fd_sc_hd__decap_12
XFILLER_19_123 VGND VPWR sky130_fd_sc_hd__decap_12
XANTENNA_mem_right_ipin_0.sc_dff_compact_3_.sky130_fd_sc_hd__dfrbp_1_CLK clkbuf_3_3_0_prog_clk/X
+ VGND VPWR sky130_fd_sc_hd__diode_2
XFILLER_15_362 VGND VPWR sky130_fd_sc_hd__decap_4
XFILLER_25_137 VGND VPWR sky130_fd_sc_hd__decap_12
XFILLER_15_27 VGND VPWR sky130_fd_sc_hd__fill_2
XFILLER_15_49 VGND VPWR sky130_fd_sc_hd__fill_2
X_09_ _09_/HI right_grid_pin_2_ VGND VPWR sky130_fd_sc_hd__conb_1
XFILLER_21_343 VGND VPWR sky130_fd_sc_hd__fill_2
XFILLER_21_365 VGND VPWR sky130_fd_sc_hd__fill_1
Xmem_right_ipin_1.sc_dff_compact_0_.sky130_fd_sc_hd__dfrbp_1 mem_right_ipin_0.sc_dff_compact_5_.sky130_fd_sc_hd__dfrbp_1/Q
+ mem_right_ipin_1.sc_dff_compact_0_.sky130_fd_sc_hd__dfrbp_1/Q mem_right_ipin_1.sc_dff_compact_0_.sky130_fd_sc_hd__dfrbp_1/Q_N
+ pReset clkbuf_3_1_0_prog_clk/X VGND VPWR sky130_fd_sc_hd__dfrbp_1
XFILLER_16_126 VGND VPWR sky130_fd_sc_hd__decap_4
XPHY_110 VGND VPWR sky130_fd_sc_hd__tapvpwrvgnd_1
XPHY_121 VGND VPWR sky130_fd_sc_hd__tapvpwrvgnd_1
XPHY_132 VGND VPWR sky130_fd_sc_hd__tapvpwrvgnd_1
XFILLER_12_332 VGND VPWR sky130_fd_sc_hd__decap_4
XPHY_143 VGND VPWR sky130_fd_sc_hd__tapvpwrvgnd_1
XPHY_154 VGND VPWR sky130_fd_sc_hd__tapvpwrvgnd_1
XPHY_165 VGND VPWR sky130_fd_sc_hd__tapvpwrvgnd_1
XPHY_176 VGND VPWR sky130_fd_sc_hd__tapvpwrvgnd_1
XPHY_187 VGND VPWR sky130_fd_sc_hd__tapvpwrvgnd_1
XPHY_198 VGND VPWR sky130_fd_sc_hd__tapvpwrvgnd_1
XPHY_1 VGND VPWR sky130_fd_sc_hd__decap_3
XFILLER_7_391 VGND VPWR sky130_fd_sc_hd__decap_3
Xclkbuf_3_2_0_prog_clk clkbuf_3_3_0_prog_clk/A clkbuf_3_2_0_prog_clk/X VGND VPWR sky130_fd_sc_hd__clkbuf_1
XFILLER_5_306 VGND VPWR sky130_fd_sc_hd__decap_12
XFILLER_21_184 VGND VPWR sky130_fd_sc_hd__fill_2
XFILLER_8_166 VGND VPWR sky130_fd_sc_hd__decap_12
XANTENNA_mem_left_ipin_4.sc_dff_compact_0_.sky130_fd_sc_hd__dfrbp_1_RESET_B pReset
+ VGND VPWR sky130_fd_sc_hd__diode_2
XANTENNA_mem_left_ipin_2.sc_dff_compact_3_.sky130_fd_sc_hd__dfrbp_1_D mem_left_ipin_2.sc_dff_compact_3_.sky130_fd_sc_hd__dfrbp_1/D
+ VGND VPWR sky130_fd_sc_hd__diode_2
XFILLER_17_221 VGND VPWR sky130_fd_sc_hd__fill_2
XFILLER_17_298 VGND VPWR sky130_fd_sc_hd__decap_6
XFILLER_4_84 VGND VPWR sky130_fd_sc_hd__decap_8
XANTENNA_mem_left_ipin_6.sc_dff_compact_1_.sky130_fd_sc_hd__dfrbp_1_RESET_B pReset
+ VGND VPWR sky130_fd_sc_hd__diode_2
XFILLER_23_27 VGND VPWR sky130_fd_sc_hd__fill_2
XFILLER_23_224 VGND VPWR sky130_fd_sc_hd__decap_12
XFILLER_14_202 VGND VPWR sky130_fd_sc_hd__decap_12
XFILLER_13_60 VGND VPWR sky130_fd_sc_hd__fill_1
XFILLER_20_227 VGND VPWR sky130_fd_sc_hd__decap_12
XFILLER_18_27 VGND VPWR sky130_fd_sc_hd__decap_4
XFILLER_10_271 VGND VPWR sky130_fd_sc_hd__decap_4
XFILLER_1_74 VGND VPWR sky130_fd_sc_hd__decap_12
X_25_ chany_bottom_in[3] chany_top_out[3] VGND VPWR sky130_fd_sc_hd__buf_2
XFILLER_24_385 VGND VPWR sky130_fd_sc_hd__decap_8
XFILLER_3_245 VGND VPWR sky130_fd_sc_hd__decap_12
XFILLER_10_83 VGND VPWR sky130_fd_sc_hd__decap_8
XANTENNA_mem_left_ipin_3.sc_dff_compact_1_.sky130_fd_sc_hd__dfrbp_1_D mem_left_ipin_3.sc_dff_compact_1_.sky130_fd_sc_hd__dfrbp_1/D
+ VGND VPWR sky130_fd_sc_hd__diode_2
XFILLER_15_330 VGND VPWR sky130_fd_sc_hd__decap_6
XFILLER_19_135 VGND VPWR sky130_fd_sc_hd__decap_12
XANTENNA_clkbuf_2_2_0_prog_clk_A clkbuf_0_prog_clk/X VGND VPWR sky130_fd_sc_hd__diode_2
X_08_ _08_/HI right_grid_pin_14_ VGND VPWR sky130_fd_sc_hd__conb_1
XFILLER_25_149 VGND VPWR sky130_fd_sc_hd__decap_6
XFILLER_18_190 VGND VPWR sky130_fd_sc_hd__decap_8
XFILLER_21_300 VGND VPWR sky130_fd_sc_hd__decap_4
XPHY_100 VGND VPWR sky130_fd_sc_hd__tapvpwrvgnd_1
XFILLER_16_138 VGND VPWR sky130_fd_sc_hd__fill_2
XPHY_111 VGND VPWR sky130_fd_sc_hd__tapvpwrvgnd_1
XFILLER_8_337 VGND VPWR sky130_fd_sc_hd__decap_12
XFILLER_8_359 VGND VPWR sky130_fd_sc_hd__decap_8
XPHY_122 VGND VPWR sky130_fd_sc_hd__tapvpwrvgnd_1
XPHY_133 VGND VPWR sky130_fd_sc_hd__tapvpwrvgnd_1
XFILLER_12_300 VGND VPWR sky130_fd_sc_hd__decap_12
XPHY_144 VGND VPWR sky130_fd_sc_hd__tapvpwrvgnd_1
XPHY_155 VGND VPWR sky130_fd_sc_hd__tapvpwrvgnd_1
XPHY_166 VGND VPWR sky130_fd_sc_hd__tapvpwrvgnd_1
XPHY_177 VGND VPWR sky130_fd_sc_hd__tapvpwrvgnd_1
XPHY_188 VGND VPWR sky130_fd_sc_hd__tapvpwrvgnd_1
XPHY_199 VGND VPWR sky130_fd_sc_hd__tapvpwrvgnd_1
XPHY_2 VGND VPWR sky130_fd_sc_hd__decap_3
XFILLER_7_62 VGND VPWR sky130_fd_sc_hd__decap_12
XFILLER_21_130 VGND VPWR sky130_fd_sc_hd__fill_2
XFILLER_21_163 VGND VPWR sky130_fd_sc_hd__decap_12
XFILLER_5_318 VGND VPWR sky130_fd_sc_hd__decap_12
XFILLER_16_93 VGND VPWR sky130_fd_sc_hd__fill_2
XFILLER_8_178 VGND VPWR sky130_fd_sc_hd__decap_12
XFILLER_17_233 VGND VPWR sky130_fd_sc_hd__decap_6
XFILLER_23_236 VGND VPWR sky130_fd_sc_hd__decap_8
Xmem_left_ipin_5.sc_dff_compact_2_.sky130_fd_sc_hd__dfrbp_1 mem_left_ipin_5.sc_dff_compact_1_.sky130_fd_sc_hd__dfrbp_1/Q
+ mem_left_ipin_5.sc_dff_compact_2_.sky130_fd_sc_hd__dfrbp_1/Q mem_left_ipin_5.sc_dff_compact_2_.sky130_fd_sc_hd__dfrbp_1/Q_N
+ pReset clkbuf_3_3_0_prog_clk/X VGND VPWR sky130_fd_sc_hd__dfrbp_1
XFILLER_1_184 VGND VPWR sky130_fd_sc_hd__decap_12
XANTENNA_mem_left_ipin_3.sc_dff_compact_4_.sky130_fd_sc_hd__dfrbp_1_D mem_left_ipin_3.sc_dff_compact_3_.sky130_fd_sc_hd__dfrbp_1/Q
+ VGND VPWR sky130_fd_sc_hd__diode_2
XFILLER_20_239 VGND VPWR sky130_fd_sc_hd__decap_12
XFILLER_11_228 VGND VPWR sky130_fd_sc_hd__decap_3
Xmem_left_ipin_2.sc_dff_compact_3_.sky130_fd_sc_hd__dfrbp_1 mem_left_ipin_2.sc_dff_compact_3_.sky130_fd_sc_hd__dfrbp_1/D
+ mem_left_ipin_2.sc_dff_compact_4_.sky130_fd_sc_hd__dfrbp_1/D mem_left_ipin_2.sc_dff_compact_3_.sky130_fd_sc_hd__dfrbp_1/Q_N
+ pReset clkbuf_3_5_0_prog_clk/X VGND VPWR sky130_fd_sc_hd__dfrbp_1
XFILLER_19_306 VGND VPWR sky130_fd_sc_hd__decap_12
XFILLER_19_339 VGND VPWR sky130_fd_sc_hd__fill_2
XFILLER_24_93 VGND VPWR sky130_fd_sc_hd__decap_3
XFILLER_6_276 VGND VPWR sky130_fd_sc_hd__decap_8
X_24_ chany_bottom_in[4] chany_top_out[4] VGND VPWR sky130_fd_sc_hd__buf_2
XANTENNA_mem_left_ipin_0.sc_dff_compact_2_.sky130_fd_sc_hd__dfrbp_1_CLK clkbuf_3_4_0_prog_clk/X
+ VGND VPWR sky130_fd_sc_hd__diode_2
XFILLER_1_86 VGND VPWR sky130_fd_sc_hd__decap_12
XANTENNA_mem_left_ipin_1.sc_dff_compact_3_.sky130_fd_sc_hd__dfrbp_1_CLK clkbuf_3_5_0_prog_clk/X
+ VGND VPWR sky130_fd_sc_hd__diode_2
XFILLER_3_257 VGND VPWR sky130_fd_sc_hd__decap_12
XANTENNA_mem_left_ipin_2.sc_dff_compact_4_.sky130_fd_sc_hd__dfrbp_1_CLK clkbuf_3_7_0_prog_clk/X
+ VGND VPWR sky130_fd_sc_hd__diode_2
XFILLER_19_147 VGND VPWR sky130_fd_sc_hd__decap_12
XFILLER_15_353 VGND VPWR sky130_fd_sc_hd__fill_1
XANTENNA_mem_left_ipin_3.sc_dff_compact_5_.sky130_fd_sc_hd__dfrbp_1_CLK clkbuf_3_7_0_prog_clk/X
+ VGND VPWR sky130_fd_sc_hd__diode_2
XFILLER_25_106 VGND VPWR sky130_fd_sc_hd__decap_12
X_07_ _07_/HI right_grid_pin_12_ VGND VPWR sky130_fd_sc_hd__conb_1
XFILLER_21_367 VGND VPWR sky130_fd_sc_hd__decap_12
XFILLER_0_249 VGND VPWR sky130_fd_sc_hd__decap_12