* NGSPICE file created from sb_1__1_.ext - technology: sky130A

* Black-box entry subcircuit for sky130_fd_sc_hd__fill_1 abstract view
.subckt sky130_fd_sc_hd__fill_1 VGND VPWR
.ends

* Black-box entry subcircuit for sky130_fd_sc_hd__decap_8 abstract view
.subckt sky130_fd_sc_hd__decap_8 VGND VPWR
.ends

* Black-box entry subcircuit for sky130_fd_sc_hd__fill_2 abstract view
.subckt sky130_fd_sc_hd__fill_2 VGND VPWR
.ends

* Black-box entry subcircuit for sky130_fd_sc_hd__dfrbp_1 abstract view
.subckt sky130_fd_sc_hd__dfrbp_1 D Q Q_N RESET_B CLK VGND VPWR
.ends

* Black-box entry subcircuit for sky130_fd_sc_hd__diode_2 abstract view
.subckt sky130_fd_sc_hd__diode_2 DIODE VGND VPWR
.ends

* Black-box entry subcircuit for sky130_fd_sc_hd__clkbuf_1 abstract view
.subckt sky130_fd_sc_hd__clkbuf_1 A X VGND VPWR
.ends

* Black-box entry subcircuit for sky130_fd_sc_hd__decap_3 abstract view
.subckt sky130_fd_sc_hd__decap_3 VGND VPWR
.ends

* Black-box entry subcircuit for sky130_fd_sc_hd__decap_4 abstract view
.subckt sky130_fd_sc_hd__decap_4 VGND VPWR
.ends

* Black-box entry subcircuit for sky130_fd_sc_hd__decap_12 abstract view
.subckt sky130_fd_sc_hd__decap_12 VGND VPWR
.ends

* Black-box entry subcircuit for sky130_fd_sc_hd__decap_6 abstract view
.subckt sky130_fd_sc_hd__decap_6 VGND VPWR
.ends

* Black-box entry subcircuit for sky130_fd_sc_hd__buf_2 abstract view
.subckt sky130_fd_sc_hd__buf_2 A X VGND VPWR
.ends

* Black-box entry subcircuit for sky130_fd_sc_hd__tapvpwrvgnd_1 abstract view
.subckt sky130_fd_sc_hd__tapvpwrvgnd_1 VGND VPWR
.ends

* Black-box entry subcircuit for sky130_fd_sc_hd__conb_1 abstract view
.subckt sky130_fd_sc_hd__conb_1 HI LO VGND VPWR
.ends

* Black-box entry subcircuit for sky130_fd_sc_hd__clkbuf_16 abstract view
.subckt sky130_fd_sc_hd__clkbuf_16 A X VGND VPWR
.ends

.subckt sb_1__1_ bottom_left_grid_pin_13_ bottom_right_grid_pin_11_ ccff_head ccff_tail
+ chanx_left_in[0] chanx_left_in[1] chanx_left_in[2] chanx_left_in[3] chanx_left_in[4]
+ chanx_left_in[5] chanx_left_in[6] chanx_left_in[7] chanx_left_in[8] chanx_left_out[0]
+ chanx_left_out[1] chanx_left_out[2] chanx_left_out[3] chanx_left_out[4] chanx_left_out[5]
+ chanx_left_out[6] chanx_left_out[7] chanx_left_out[8] chanx_right_in[0] chanx_right_in[1]
+ chanx_right_in[2] chanx_right_in[3] chanx_right_in[4] chanx_right_in[5] chanx_right_in[6]
+ chanx_right_in[7] chanx_right_in[8] chanx_right_out[0] chanx_right_out[1] chanx_right_out[2]
+ chanx_right_out[3] chanx_right_out[4] chanx_right_out[5] chanx_right_out[6] chanx_right_out[7]
+ chanx_right_out[8] chany_bottom_in[0] chany_bottom_in[1] chany_bottom_in[2] chany_bottom_in[3]
+ chany_bottom_in[4] chany_bottom_in[5] chany_bottom_in[6] chany_bottom_in[7] chany_bottom_in[8]
+ chany_bottom_out[0] chany_bottom_out[1] chany_bottom_out[2] chany_bottom_out[3]
+ chany_bottom_out[4] chany_bottom_out[5] chany_bottom_out[6] chany_bottom_out[7]
+ chany_bottom_out[8] chany_top_in[0] chany_top_in[1] chany_top_in[2] chany_top_in[3]
+ chany_top_in[4] chany_top_in[5] chany_top_in[6] chany_top_in[7] chany_top_in[8]
+ chany_top_out[0] chany_top_out[1] chany_top_out[2] chany_top_out[3] chany_top_out[4]
+ chany_top_out[5] chany_top_out[6] chany_top_out[7] chany_top_out[8] left_bottom_grid_pin_12_
+ left_top_grid_pin_10_ pReset prog_clk right_bottom_grid_pin_12_ right_top_grid_pin_10_
+ top_left_grid_pin_13_ top_right_grid_pin_11_ VPWR VGND
XFILLER_22_122 VGND VPWR sky130_fd_sc_hd__fill_1
XFILLER_26_63 VGND VPWR sky130_fd_sc_hd__decap_8
XFILLER_26_30 VGND VPWR sky130_fd_sc_hd__fill_1
XFILLER_13_111 VGND VPWR sky130_fd_sc_hd__fill_2
XFILLER_3_56 VGND VPWR sky130_fd_sc_hd__fill_2
XFILLER_12_87 VGND VPWR sky130_fd_sc_hd__fill_2
Xmem_bottom_track_1.sc_dff_compact_1_.sky130_fd_sc_hd__dfrbp_1 mem_bottom_track_1.sc_dff_compact_1_.sky130_fd_sc_hd__dfrbp_1/D
+ mem_bottom_track_1.sc_dff_compact_1_.sky130_fd_sc_hd__dfrbp_1/Q mem_bottom_track_1.sc_dff_compact_1_.sky130_fd_sc_hd__dfrbp_1/Q_N
+ pReset clkbuf_3_2_0_prog_clk/X VGND VPWR sky130_fd_sc_hd__dfrbp_1
XFILLER_6_129 VGND VPWR sky130_fd_sc_hd__fill_2
XFILLER_10_125 VGND VPWR sky130_fd_sc_hd__fill_2
XFILLER_10_158 VGND VPWR sky130_fd_sc_hd__fill_2
XANTENNA_mem_bottom_track_1.sc_dff_compact_5_.sky130_fd_sc_hd__dfrbp_1_D mem_bottom_track_1.sc_dff_compact_4_.sky130_fd_sc_hd__dfrbp_1/Q
+ VGND VPWR sky130_fd_sc_hd__diode_2
XFILLER_23_97 VGND VPWR sky130_fd_sc_hd__fill_2
XFILLER_23_42 VGND VPWR sky130_fd_sc_hd__fill_2
XANTENNA_mem_right_track_8.sc_dff_compact_3_.sky130_fd_sc_hd__dfrbp_1_D mem_right_track_8.sc_dff_compact_3_.sky130_fd_sc_hd__dfrbp_1/D
+ VGND VPWR sky130_fd_sc_hd__diode_2
XANTENNA_mem_left_track_9.sc_dff_compact_2_.sky130_fd_sc_hd__dfrbp_1_D mem_left_track_9.sc_dff_compact_1_.sky130_fd_sc_hd__dfrbp_1/Q
+ VGND VPWR sky130_fd_sc_hd__diode_2
XFILLER_2_154 VGND VPWR sky130_fd_sc_hd__fill_2
XFILLER_2_143 VGND VPWR sky130_fd_sc_hd__fill_2
XFILLER_9_66 VGND VPWR sky130_fd_sc_hd__fill_2
XFILLER_9_77 VGND VPWR sky130_fd_sc_hd__fill_2
Xclkbuf_3_4_0_prog_clk clkbuf_3_5_0_prog_clk/A clkbuf_3_4_0_prog_clk/X VGND VPWR sky130_fd_sc_hd__clkbuf_1
XANTENNA_clkbuf_2_1_0_prog_clk_A clkbuf_1_0_0_prog_clk/X VGND VPWR sky130_fd_sc_hd__diode_2
Xmem_right_track_0.sc_dff_compact_5_.sky130_fd_sc_hd__dfrbp_1 mem_right_track_0.sc_dff_compact_4_.sky130_fd_sc_hd__dfrbp_1/Q
+ mem_right_track_0.sc_dff_compact_6_.sky130_fd_sc_hd__dfrbp_1/D mem_right_track_0.sc_dff_compact_5_.sky130_fd_sc_hd__dfrbp_1/Q_N
+ pReset clkbuf_3_3_0_prog_clk/X VGND VPWR sky130_fd_sc_hd__dfrbp_1
Xmem_top_track_16.sc_dff_compact_0_.sky130_fd_sc_hd__dfrbp_1 mem_top_track_8.sc_dff_compact_7_.sky130_fd_sc_hd__dfrbp_1/Q
+ mem_top_track_16.sc_dff_compact_0_.sky130_fd_sc_hd__dfrbp_1/Q mem_top_track_16.sc_dff_compact_0_.sky130_fd_sc_hd__dfrbp_1/Q_N
+ pReset clkbuf_3_7_0_prog_clk/X VGND VPWR sky130_fd_sc_hd__dfrbp_1
XFILLER_18_64 VGND VPWR sky130_fd_sc_hd__fill_2
XANTENNA_mem_top_track_8.sc_dff_compact_7_.sky130_fd_sc_hd__dfrbp_1_D mem_top_track_8.sc_dff_compact_7_.sky130_fd_sc_hd__dfrbp_1/D
+ VGND VPWR sky130_fd_sc_hd__diode_2
XFILLER_20_32 VGND VPWR sky130_fd_sc_hd__fill_2
Xmem_right_track_16.sc_dff_compact_0_.sky130_fd_sc_hd__dfrbp_1 mem_right_track_8.sc_dff_compact_7_.sky130_fd_sc_hd__dfrbp_1/Q
+ mem_right_track_16.sc_dff_compact_1_.sky130_fd_sc_hd__dfrbp_1/D mem_right_track_16.sc_dff_compact_0_.sky130_fd_sc_hd__dfrbp_1/Q_N
+ pReset clkbuf_3_3_0_prog_clk/X VGND VPWR sky130_fd_sc_hd__dfrbp_1
XFILLER_13_3 VGND VPWR sky130_fd_sc_hd__decap_3
XFILLER_6_78 VGND VPWR sky130_fd_sc_hd__decap_3
XFILLER_15_54 VGND VPWR sky130_fd_sc_hd__fill_1
XFILLER_15_43 VGND VPWR sky130_fd_sc_hd__decap_4
Xmem_bottom_track_17.sc_dff_compact_2_.sky130_fd_sc_hd__dfrbp_1 mem_bottom_track_17.sc_dff_compact_1_.sky130_fd_sc_hd__dfrbp_1/Q
+ mem_bottom_track_17.sc_dff_compact_3_.sky130_fd_sc_hd__dfrbp_1/D mem_bottom_track_17.sc_dff_compact_2_.sky130_fd_sc_hd__dfrbp_1/Q_N
+ pReset clkbuf_3_3_0_prog_clk/X VGND VPWR sky130_fd_sc_hd__dfrbp_1
XFILLER_16_142 VGND VPWR sky130_fd_sc_hd__decap_8
XFILLER_16_120 VGND VPWR sky130_fd_sc_hd__decap_3
XANTENNA_mem_left_track_17.sc_dff_compact_0_.sky130_fd_sc_hd__dfrbp_1_RESET_B pReset
+ VGND VPWR sky130_fd_sc_hd__diode_2
XFILLER_26_75 VGND VPWR sky130_fd_sc_hd__decap_12
XANTENNA_mem_left_track_9.sc_dff_compact_5_.sky130_fd_sc_hd__dfrbp_1_CLK clkbuf_3_5_0_prog_clk/X
+ VGND VPWR sky130_fd_sc_hd__diode_2
XANTENNA_mem_right_track_8.sc_dff_compact_6_.sky130_fd_sc_hd__dfrbp_1_D mem_right_track_8.sc_dff_compact_5_.sky130_fd_sc_hd__dfrbp_1/Q
+ VGND VPWR sky130_fd_sc_hd__diode_2
XANTENNA_mem_left_track_9.sc_dff_compact_5_.sky130_fd_sc_hd__dfrbp_1_D mem_left_track_9.sc_dff_compact_5_.sky130_fd_sc_hd__dfrbp_1/D
+ VGND VPWR sky130_fd_sc_hd__diode_2
XFILLER_12_55 VGND VPWR sky130_fd_sc_hd__fill_2
XFILLER_23_54 VGND VPWR sky130_fd_sc_hd__fill_1
XANTENNA_mem_bottom_track_17.sc_dff_compact_4_.sky130_fd_sc_hd__dfrbp_1_RESET_B pReset
+ VGND VPWR sky130_fd_sc_hd__diode_2
XANTENNA_mem_left_track_17.sc_dff_compact_2_.sky130_fd_sc_hd__dfrbp_1_D mem_left_track_17.sc_dff_compact_1_.sky130_fd_sc_hd__dfrbp_1/Q
+ VGND VPWR sky130_fd_sc_hd__diode_2
XFILLER_18_76 VGND VPWR sky130_fd_sc_hd__fill_2
XFILLER_18_32 VGND VPWR sky130_fd_sc_hd__fill_2
XFILLER_20_44 VGND VPWR sky130_fd_sc_hd__decap_4
XFILLER_20_11 VGND VPWR sky130_fd_sc_hd__fill_2
XFILLER_16_154 VGND VPWR sky130_fd_sc_hd__decap_6
XFILLER_15_99 VGND VPWR sky130_fd_sc_hd__decap_3
XANTENNA_mem_right_track_0.sc_dff_compact_3_.sky130_fd_sc_hd__dfrbp_1_RESET_B pReset
+ VGND VPWR sky130_fd_sc_hd__diode_2
Xmem_left_track_9.sc_dff_compact_4_.sky130_fd_sc_hd__dfrbp_1 mem_left_track_9.sc_dff_compact_3_.sky130_fd_sc_hd__dfrbp_1/Q
+ mem_left_track_9.sc_dff_compact_5_.sky130_fd_sc_hd__dfrbp_1/D mem_left_track_9.sc_dff_compact_4_.sky130_fd_sc_hd__dfrbp_1/Q_N
+ pReset clkbuf_3_5_0_prog_clk/X VGND VPWR sky130_fd_sc_hd__dfrbp_1
XFILLER_26_87 VGND VPWR sky130_fd_sc_hd__decap_6
XFILLER_26_32 VGND VPWR sky130_fd_sc_hd__decap_12
XFILLER_13_146 VGND VPWR sky130_fd_sc_hd__decap_12
XANTENNA_mem_bottom_track_9.sc_dff_compact_0_.sky130_fd_sc_hd__dfrbp_1_RESET_B pReset
+ VGND VPWR sky130_fd_sc_hd__diode_2
XANTENNA_mem_bottom_track_1.sc_dff_compact_6_.sky130_fd_sc_hd__dfrbp_1_RESET_B pReset
+ VGND VPWR sky130_fd_sc_hd__diode_2
XFILLER_8_150 VGND VPWR sky130_fd_sc_hd__decap_3
XANTENNA_mem_left_track_17.sc_dff_compact_5_.sky130_fd_sc_hd__dfrbp_1_D mem_left_track_17.sc_dff_compact_5_.sky130_fd_sc_hd__dfrbp_1/D
+ VGND VPWR sky130_fd_sc_hd__diode_2
XANTENNA_mem_top_track_8.sc_dff_compact_3_.sky130_fd_sc_hd__dfrbp_1_RESET_B pReset
+ VGND VPWR sky130_fd_sc_hd__diode_2
XFILLER_10_116 VGND VPWR sky130_fd_sc_hd__fill_2
XFILLER_10_138 VGND VPWR sky130_fd_sc_hd__fill_2
Xmem_right_track_8.sc_dff_compact_1_.sky130_fd_sc_hd__dfrbp_1 mem_right_track_8.sc_dff_compact_0_.sky130_fd_sc_hd__dfrbp_1/Q
+ mem_right_track_8.sc_dff_compact_2_.sky130_fd_sc_hd__dfrbp_1/D mem_right_track_8.sc_dff_compact_1_.sky130_fd_sc_hd__dfrbp_1/Q_N
+ pReset clkbuf_3_2_0_prog_clk/X VGND VPWR sky130_fd_sc_hd__dfrbp_1
XANTENNA_mem_left_track_9.sc_dff_compact_3_.sky130_fd_sc_hd__dfrbp_1_RESET_B pReset
+ VGND VPWR sky130_fd_sc_hd__diode_2
XFILLER_0_59 VGND VPWR sky130_fd_sc_hd__decap_3
XANTENNA_mem_right_track_16.sc_dff_compact_0_.sky130_fd_sc_hd__dfrbp_1_RESET_B pReset
+ VGND VPWR sky130_fd_sc_hd__diode_2
XANTENNA_mem_right_track_8.sc_dff_compact_7_.sky130_fd_sc_hd__dfrbp_1_RESET_B pReset
+ VGND VPWR sky130_fd_sc_hd__diode_2
XFILLER_9_57 VGND VPWR sky130_fd_sc_hd__fill_2
XFILLER_18_11 VGND VPWR sky130_fd_sc_hd__fill_2
Xmem_left_track_1.sc_dff_compact_1_.sky130_fd_sc_hd__dfrbp_1 mem_left_track_1.sc_dff_compact_1_.sky130_fd_sc_hd__dfrbp_1/D
+ mem_left_track_1.sc_dff_compact_1_.sky130_fd_sc_hd__dfrbp_1/Q mem_left_track_1.sc_dff_compact_1_.sky130_fd_sc_hd__dfrbp_1/Q_N
+ pReset clkbuf_3_4_0_prog_clk/X VGND VPWR sky130_fd_sc_hd__dfrbp_1
XANTENNA_mem_top_track_0.sc_dff_compact_4_.sky130_fd_sc_hd__dfrbp_1_CLK clkbuf_3_3_0_prog_clk/X
+ VGND VPWR sky130_fd_sc_hd__diode_2
XFILLER_20_78 VGND VPWR sky130_fd_sc_hd__fill_2
XFILLER_20_23 VGND VPWR sky130_fd_sc_hd__fill_2
XANTENNA_clkbuf_1_0_0_prog_clk_A clkbuf_0_prog_clk/X VGND VPWR sky130_fd_sc_hd__diode_2
Xmem_top_track_0.sc_dff_compact_5_.sky130_fd_sc_hd__dfrbp_1 mem_top_track_0.sc_dff_compact_4_.sky130_fd_sc_hd__dfrbp_1/Q
+ mem_top_track_0.sc_dff_compact_6_.sky130_fd_sc_hd__dfrbp_1/D mem_top_track_0.sc_dff_compact_5_.sky130_fd_sc_hd__dfrbp_1/Q_N
+ pReset mem_top_track_0.sc_dff_compact_5_.sky130_fd_sc_hd__dfrbp_1/CLK VGND VPWR
+ sky130_fd_sc_hd__dfrbp_1
XFILLER_16_133 VGND VPWR sky130_fd_sc_hd__fill_1
XFILLER_15_89 VGND VPWR sky130_fd_sc_hd__decap_4
XFILLER_15_34 VGND VPWR sky130_fd_sc_hd__fill_2
XFILLER_22_125 VGND VPWR sky130_fd_sc_hd__decap_12
Xclkbuf_2_1_0_prog_clk clkbuf_1_0_0_prog_clk/X clkbuf_3_3_0_prog_clk/A VGND VPWR sky130_fd_sc_hd__clkbuf_1
XFILLER_26_44 VGND VPWR sky130_fd_sc_hd__decap_12
XFILLER_26_11 VGND VPWR sky130_fd_sc_hd__fill_1
XFILLER_13_158 VGND VPWR sky130_fd_sc_hd__fill_2
XFILLER_13_103 VGND VPWR sky130_fd_sc_hd__fill_2
XANTENNA_mem_right_track_16.sc_dff_compact_1_.sky130_fd_sc_hd__dfrbp_1_D mem_right_track_16.sc_dff_compact_1_.sky130_fd_sc_hd__dfrbp_1/D
+ VGND VPWR sky130_fd_sc_hd__diode_2
XFILLER_9_118 VGND VPWR sky130_fd_sc_hd__fill_2
XANTENNA_mem_right_track_8.sc_dff_compact_2_.sky130_fd_sc_hd__dfrbp_1_CLK clkbuf_3_3_0_prog_clk/X
+ VGND VPWR sky130_fd_sc_hd__diode_2
XFILLER_5_154 VGND VPWR sky130_fd_sc_hd__fill_2
XANTENNA_mem_top_track_0.sc_dff_compact_1_.sky130_fd_sc_hd__dfrbp_1_D mem_top_track_0.sc_dff_compact_1_.sky130_fd_sc_hd__dfrbp_1/D
+ VGND VPWR sky130_fd_sc_hd__diode_2
XANTENNA__12__A chanx_right_in[6] VGND VPWR sky130_fd_sc_hd__diode_2
XANTENNA_mem_left_track_17.sc_dff_compact_1_.sky130_fd_sc_hd__dfrbp_1_CLK clkbuf_3_7_0_prog_clk/X
+ VGND VPWR sky130_fd_sc_hd__diode_2
XANTENNA_mem_bottom_track_1.sc_dff_compact_3_.sky130_fd_sc_hd__dfrbp_1_CLK clkbuf_3_1_0_prog_clk/X
+ VGND VPWR sky130_fd_sc_hd__diode_2
XFILLER_18_23 VGND VPWR sky130_fd_sc_hd__fill_2
X_29_ chany_top_in[0] chany_bottom_out[1] VGND VPWR sky130_fd_sc_hd__buf_2
XANTENNA_mem_right_track_16.sc_dff_compact_4_.sky130_fd_sc_hd__dfrbp_1_D mem_right_track_16.sc_dff_compact_4_.sky130_fd_sc_hd__dfrbp_1/D
+ VGND VPWR sky130_fd_sc_hd__diode_2
Xmem_bottom_track_9.sc_dff_compact_7_.sky130_fd_sc_hd__dfrbp_1 mem_bottom_track_9.sc_dff_compact_7_.sky130_fd_sc_hd__dfrbp_1/D
+ mem_bottom_track_9.sc_dff_compact_7_.sky130_fd_sc_hd__dfrbp_1/Q mem_bottom_track_9.sc_dff_compact_7_.sky130_fd_sc_hd__dfrbp_1/Q_N
+ pReset mem_bottom_track_9.sc_dff_compact_7_.sky130_fd_sc_hd__dfrbp_1/CLK VGND VPWR
+ sky130_fd_sc_hd__dfrbp_1
Xclkbuf_3_3_0_prog_clk clkbuf_3_3_0_prog_clk/A clkbuf_3_3_0_prog_clk/X VGND VPWR sky130_fd_sc_hd__clkbuf_1
XFILLER_20_7 VGND VPWR sky130_fd_sc_hd__fill_2
XANTENNA_mem_bottom_track_17.sc_dff_compact_0_.sky130_fd_sc_hd__dfrbp_1_D mem_bottom_track_9.sc_dff_compact_7_.sky130_fd_sc_hd__dfrbp_1/Q
+ VGND VPWR sky130_fd_sc_hd__diode_2
XANTENNA_mem_right_track_0.sc_dff_compact_0_.sky130_fd_sc_hd__dfrbp_1_D mem_top_track_16.sc_dff_compact_5_.sky130_fd_sc_hd__dfrbp_1/Q
+ VGND VPWR sky130_fd_sc_hd__diode_2
XFILLER_15_57 VGND VPWR sky130_fd_sc_hd__fill_2
XANTENNA__20__A chanx_left_in[4] VGND VPWR sky130_fd_sc_hd__diode_2
XFILLER_11_3 VGND VPWR sky130_fd_sc_hd__fill_2
XFILLER_26_56 VGND VPWR sky130_fd_sc_hd__decap_6
XFILLER_22_137 VGND VPWR sky130_fd_sc_hd__decap_12
XFILLER_13_115 VGND VPWR sky130_fd_sc_hd__decap_4
XANTENNA__15__A chanx_right_in[2] VGND VPWR sky130_fd_sc_hd__diode_2
XANTENNA_mem_top_track_0.sc_dff_compact_4_.sky130_fd_sc_hd__dfrbp_1_D mem_top_track_0.sc_dff_compact_3_.sky130_fd_sc_hd__dfrbp_1/Q
+ VGND VPWR sky130_fd_sc_hd__diode_2
XFILLER_10_129 VGND VPWR sky130_fd_sc_hd__fill_2
XANTENNA_mem_top_track_8.sc_dff_compact_4_.sky130_fd_sc_hd__dfrbp_1_CLK clkbuf_3_6_0_prog_clk/X
+ VGND VPWR sky130_fd_sc_hd__diode_2
XFILLER_23_57 VGND VPWR sky130_fd_sc_hd__fill_2
XFILLER_23_46 VGND VPWR sky130_fd_sc_hd__fill_2
XFILLER_2_158 VGND VPWR sky130_fd_sc_hd__fill_2
XFILLER_2_147 VGND VPWR sky130_fd_sc_hd__fill_2
Xmem_bottom_track_1.sc_dff_compact_4_.sky130_fd_sc_hd__dfrbp_1 mem_bottom_track_1.sc_dff_compact_3_.sky130_fd_sc_hd__dfrbp_1/Q
+ mem_bottom_track_1.sc_dff_compact_4_.sky130_fd_sc_hd__dfrbp_1/Q mem_bottom_track_1.sc_dff_compact_4_.sky130_fd_sc_hd__dfrbp_1/Q_N
+ pReset clkbuf_3_1_0_prog_clk/X VGND VPWR sky130_fd_sc_hd__dfrbp_1
XFILLER_4_81 VGND VPWR sky130_fd_sc_hd__fill_2
Xmem_top_track_8.sc_dff_compact_1_.sky130_fd_sc_hd__dfrbp_1 mem_top_track_8.sc_dff_compact_1_.sky130_fd_sc_hd__dfrbp_1/D
+ mem_top_track_8.sc_dff_compact_1_.sky130_fd_sc_hd__dfrbp_1/Q mem_top_track_8.sc_dff_compact_1_.sky130_fd_sc_hd__dfrbp_1/Q_N
+ pReset clkbuf_3_7_0_prog_clk/X VGND VPWR sky130_fd_sc_hd__dfrbp_1
XFILLER_9_26 VGND VPWR sky130_fd_sc_hd__fill_2
XFILLER_18_68 VGND VPWR sky130_fd_sc_hd__fill_2
XANTENNA_mem_bottom_track_17.sc_dff_compact_3_.sky130_fd_sc_hd__dfrbp_1_D mem_bottom_track_17.sc_dff_compact_3_.sky130_fd_sc_hd__dfrbp_1/D
+ VGND VPWR sky130_fd_sc_hd__diode_2
XANTENNA_mem_right_track_0.sc_dff_compact_3_.sky130_fd_sc_hd__dfrbp_1_D mem_right_track_0.sc_dff_compact_3_.sky130_fd_sc_hd__dfrbp_1/D
+ VGND VPWR sky130_fd_sc_hd__diode_2
XANTENNA_mem_right_track_16.sc_dff_compact_3_.sky130_fd_sc_hd__dfrbp_1_CLK clkbuf_3_4_0_prog_clk/X
+ VGND VPWR sky130_fd_sc_hd__diode_2
XANTENNA__23__A chanx_left_in[0] VGND VPWR sky130_fd_sc_hd__diode_2
XANTENNA_mem_left_track_1.sc_dff_compact_2_.sky130_fd_sc_hd__dfrbp_1_D mem_left_track_1.sc_dff_compact_1_.sky130_fd_sc_hd__dfrbp_1/Q
+ VGND VPWR sky130_fd_sc_hd__diode_2
XANTENNA_mem_left_track_17.sc_dff_compact_1_.sky130_fd_sc_hd__dfrbp_1_RESET_B pReset
+ VGND VPWR sky130_fd_sc_hd__diode_2
X_28_ chany_top_in[1] chany_bottom_out[2] VGND VPWR sky130_fd_sc_hd__buf_2
XFILLER_20_36 VGND VPWR sky130_fd_sc_hd__fill_2
XANTENNA__18__A chanx_left_in[6] VGND VPWR sky130_fd_sc_hd__diode_2
Xmem_top_track_16.sc_dff_compact_3_.sky130_fd_sc_hd__dfrbp_1 mem_top_track_16.sc_dff_compact_2_.sky130_fd_sc_hd__dfrbp_1/Q
+ mem_top_track_16.sc_dff_compact_3_.sky130_fd_sc_hd__dfrbp_1/Q mem_top_track_16.sc_dff_compact_3_.sky130_fd_sc_hd__dfrbp_1/Q_N
+ pReset mem_top_track_16.sc_dff_compact_3_.sky130_fd_sc_hd__dfrbp_1/CLK VGND VPWR
+ sky130_fd_sc_hd__dfrbp_1
XANTENNA_mem_top_track_0.sc_dff_compact_7_.sky130_fd_sc_hd__dfrbp_1_D mem_top_track_0.sc_dff_compact_7_.sky130_fd_sc_hd__dfrbp_1/D
+ VGND VPWR sky130_fd_sc_hd__diode_2
Xmem_right_track_16.sc_dff_compact_3_.sky130_fd_sc_hd__dfrbp_1 mem_right_track_16.sc_dff_compact_2_.sky130_fd_sc_hd__dfrbp_1/Q
+ mem_right_track_16.sc_dff_compact_4_.sky130_fd_sc_hd__dfrbp_1/D mem_right_track_16.sc_dff_compact_3_.sky130_fd_sc_hd__dfrbp_1/Q_N
+ pReset clkbuf_3_4_0_prog_clk/X VGND VPWR sky130_fd_sc_hd__dfrbp_1
XFILLER_25_146 VGND VPWR sky130_fd_sc_hd__decap_12
XFILLER_15_47 VGND VPWR sky130_fd_sc_hd__fill_1
Xmem_bottom_track_17.sc_dff_compact_5_.sky130_fd_sc_hd__dfrbp_1 mem_bottom_track_17.sc_dff_compact_4_.sky130_fd_sc_hd__dfrbp_1/Q
+ mem_left_track_1.sc_dff_compact_0_.sky130_fd_sc_hd__dfrbp_1/D mem_bottom_track_17.sc_dff_compact_5_.sky130_fd_sc_hd__dfrbp_1/Q_N
+ pReset mem_bottom_track_17.sc_dff_compact_5_.sky130_fd_sc_hd__dfrbp_1/CLK VGND VPWR
+ sky130_fd_sc_hd__dfrbp_1
XFILLER_22_149 VGND VPWR sky130_fd_sc_hd__decap_4
XFILLER_22_116 VGND VPWR sky130_fd_sc_hd__decap_6
XANTENNA_mem_bottom_track_17.sc_dff_compact_5_.sky130_fd_sc_hd__dfrbp_1_RESET_B pReset
+ VGND VPWR sky130_fd_sc_hd__diode_2
XANTENNA__31__A chany_bottom_in[5] VGND VPWR sky130_fd_sc_hd__diode_2
XANTENNA_mem_bottom_track_9.sc_dff_compact_3_.sky130_fd_sc_hd__dfrbp_1_CLK clkbuf_3_4_0_prog_clk/X
+ VGND VPWR sky130_fd_sc_hd__diode_2
XFILLER_8_120 VGND VPWR sky130_fd_sc_hd__fill_2
XFILLER_8_142 VGND VPWR sky130_fd_sc_hd__fill_2
XANTENNA_mem_right_track_0.sc_dff_compact_6_.sky130_fd_sc_hd__dfrbp_1_D mem_right_track_0.sc_dff_compact_6_.sky130_fd_sc_hd__dfrbp_1/D
+ VGND VPWR sky130_fd_sc_hd__diode_2
XFILLER_12_59 VGND VPWR sky130_fd_sc_hd__fill_2
XFILLER_12_26 VGND VPWR sky130_fd_sc_hd__decap_3
XANTENNA__26__A chany_top_in[4] VGND VPWR sky130_fd_sc_hd__diode_2
XANTENNA_mem_left_track_1.sc_dff_compact_5_.sky130_fd_sc_hd__dfrbp_1_D mem_left_track_1.sc_dff_compact_5_.sky130_fd_sc_hd__dfrbp_1/D
+ VGND VPWR sky130_fd_sc_hd__diode_2
XFILLER_5_112 VGND VPWR sky130_fd_sc_hd__decap_4
XANTENNA_mem_top_track_0.sc_dff_compact_0_.sky130_fd_sc_hd__dfrbp_1_RESET_B pReset
+ VGND VPWR sky130_fd_sc_hd__diode_2
XANTENNA_mem_top_track_16.sc_dff_compact_2_.sky130_fd_sc_hd__dfrbp_1_CLK clkbuf_3_2_0_prog_clk/X
+ VGND VPWR sky130_fd_sc_hd__diode_2
XANTENNA_mem_left_track_1.sc_dff_compact_0_.sky130_fd_sc_hd__dfrbp_1_RESET_B pReset
+ VGND VPWR sky130_fd_sc_hd__diode_2
XFILLER_18_36 VGND VPWR sky130_fd_sc_hd__fill_1
XANTENNA_clkbuf_3_3_0_prog_clk_A clkbuf_3_3_0_prog_clk/A VGND VPWR sky130_fd_sc_hd__diode_2
XANTENNA_mem_right_track_0.sc_dff_compact_4_.sky130_fd_sc_hd__dfrbp_1_RESET_B pReset
+ VGND VPWR sky130_fd_sc_hd__diode_2
X_27_ chany_top_in[2] chany_bottom_out[3] VGND VPWR sky130_fd_sc_hd__buf_2
XANTENNA_mem_left_track_9.sc_dff_compact_4_.sky130_fd_sc_hd__dfrbp_1_CLK clkbuf_3_5_0_prog_clk/X
+ VGND VPWR sky130_fd_sc_hd__diode_2
Xmem_left_track_17.sc_dff_compact_1_.sky130_fd_sc_hd__dfrbp_1 mem_left_track_17.sc_dff_compact_1_.sky130_fd_sc_hd__dfrbp_1/D
+ mem_left_track_17.sc_dff_compact_1_.sky130_fd_sc_hd__dfrbp_1/Q mem_left_track_17.sc_dff_compact_1_.sky130_fd_sc_hd__dfrbp_1/Q_N
+ pReset clkbuf_3_7_0_prog_clk/X VGND VPWR sky130_fd_sc_hd__dfrbp_1
XFILLER_20_15 VGND VPWR sky130_fd_sc_hd__fill_2
XANTENNA_mem_bottom_track_9.sc_dff_compact_1_.sky130_fd_sc_hd__dfrbp_1_RESET_B pReset
+ VGND VPWR sky130_fd_sc_hd__diode_2
XANTENNA_mem_bottom_track_1.sc_dff_compact_7_.sky130_fd_sc_hd__dfrbp_1_RESET_B pReset
+ VGND VPWR sky130_fd_sc_hd__diode_2
XANTENNA__34__A chany_bottom_in[1] VGND VPWR sky130_fd_sc_hd__diode_2
XFILLER_10_81 VGND VPWR sky130_fd_sc_hd__fill_2
XFILLER_25_158 VGND VPWR sky130_fd_sc_hd__fill_2
XANTENNA_mem_top_track_8.sc_dff_compact_4_.sky130_fd_sc_hd__dfrbp_1_RESET_B pReset
+ VGND VPWR sky130_fd_sc_hd__diode_2
XFILLER_15_26 VGND VPWR sky130_fd_sc_hd__fill_2
XPHY_120 VGND VPWR sky130_fd_sc_hd__tapvpwrvgnd_1
XFILLER_21_91 VGND VPWR sky130_fd_sc_hd__fill_2
XFILLER_16_125 VGND VPWR sky130_fd_sc_hd__fill_2
XANTENNA__29__A chany_top_in[0] VGND VPWR sky130_fd_sc_hd__diode_2
XANTENNA_mem_left_track_9.sc_dff_compact_4_.sky130_fd_sc_hd__dfrbp_1_RESET_B pReset
+ VGND VPWR sky130_fd_sc_hd__diode_2
XPHY_0 VGND VPWR sky130_fd_sc_hd__decap_3
XFILLER_26_14 VGND VPWR sky130_fd_sc_hd__decap_12
Xmem_bottom_track_9.sc_dff_compact_0_.sky130_fd_sc_hd__dfrbp_1 mem_bottom_track_1.sc_dff_compact_7_.sky130_fd_sc_hd__dfrbp_1/Q
+ mem_bottom_track_9.sc_dff_compact_1_.sky130_fd_sc_hd__dfrbp_1/D mem_bottom_track_9.sc_dff_compact_0_.sky130_fd_sc_hd__dfrbp_1/Q_N
+ pReset clkbuf_3_4_0_prog_clk/X VGND VPWR sky130_fd_sc_hd__dfrbp_1
XANTENNA_mem_right_track_16.sc_dff_compact_1_.sky130_fd_sc_hd__dfrbp_1_RESET_B pReset
+ VGND VPWR sky130_fd_sc_hd__diode_2
Xmem_left_track_9.sc_dff_compact_7_.sky130_fd_sc_hd__dfrbp_1 mem_left_track_9.sc_dff_compact_6_.sky130_fd_sc_hd__dfrbp_1/Q
+ mem_left_track_9.sc_dff_compact_7_.sky130_fd_sc_hd__dfrbp_1/Q mem_left_track_9.sc_dff_compact_7_.sky130_fd_sc_hd__dfrbp_1/Q_N
+ pReset clkbuf_3_5_0_prog_clk/X VGND VPWR sky130_fd_sc_hd__dfrbp_1
XFILLER_12_150 VGND VPWR sky130_fd_sc_hd__decap_3
XANTENNA_mem_right_track_0.sc_dff_compact_1_.sky130_fd_sc_hd__dfrbp_1_CLK clkbuf_3_6_0_prog_clk/X
+ VGND VPWR sky130_fd_sc_hd__diode_2
XFILLER_8_132 VGND VPWR sky130_fd_sc_hd__fill_2
XFILLER_8_154 VGND VPWR sky130_fd_sc_hd__fill_2
XFILLER_5_146 VGND VPWR sky130_fd_sc_hd__fill_2
Xclkbuf_2_0_0_prog_clk clkbuf_1_0_0_prog_clk/X clkbuf_3_1_0_prog_clk/A VGND VPWR sky130_fd_sc_hd__clkbuf_1
XFILLER_23_26 VGND VPWR sky130_fd_sc_hd__decap_12
Xmem_right_track_8.sc_dff_compact_4_.sky130_fd_sc_hd__dfrbp_1 mem_right_track_8.sc_dff_compact_3_.sky130_fd_sc_hd__dfrbp_1/Q
+ mem_right_track_8.sc_dff_compact_5_.sky130_fd_sc_hd__dfrbp_1/D mem_right_track_8.sc_dff_compact_4_.sky130_fd_sc_hd__dfrbp_1/Q_N
+ pReset clkbuf_3_1_0_prog_clk/X VGND VPWR sky130_fd_sc_hd__dfrbp_1
XANTENNA_mem_top_track_16.sc_dff_compact_1_.sky130_fd_sc_hd__dfrbp_1_D mem_top_track_16.sc_dff_compact_0_.sky130_fd_sc_hd__dfrbp_1/Q
+ VGND VPWR sky130_fd_sc_hd__diode_2
XFILLER_18_15 VGND VPWR sky130_fd_sc_hd__fill_2
XFILLER_24_91 VGND VPWR sky130_fd_sc_hd__fill_1
XFILLER_20_27 VGND VPWR sky130_fd_sc_hd__fill_2
X_26_ chany_top_in[4] chany_bottom_out[5] VGND VPWR sky130_fd_sc_hd__buf_2
XFILLER_19_91 VGND VPWR sky130_fd_sc_hd__fill_2
Xmem_left_track_1.sc_dff_compact_4_.sky130_fd_sc_hd__dfrbp_1 mem_left_track_1.sc_dff_compact_3_.sky130_fd_sc_hd__dfrbp_1/Q
+ mem_left_track_1.sc_dff_compact_5_.sky130_fd_sc_hd__dfrbp_1/D mem_left_track_1.sc_dff_compact_4_.sky130_fd_sc_hd__dfrbp_1/Q_N
+ pReset mem_left_track_1.sc_dff_compact_4_.sky130_fd_sc_hd__dfrbp_1/CLK VGND VPWR
+ sky130_fd_sc_hd__dfrbp_1
XFILLER_6_29 VGND VPWR sky130_fd_sc_hd__fill_2
XFILLER_15_38 VGND VPWR sky130_fd_sc_hd__fill_2
X_09_ _09_/HI chanx_right_out[8] VGND VPWR sky130_fd_sc_hd__conb_1
XPHY_121 VGND VPWR sky130_fd_sc_hd__tapvpwrvgnd_1
XPHY_110 VGND VPWR sky130_fd_sc_hd__tapvpwrvgnd_1
Xmem_right_track_0.sc_dff_compact_1_.sky130_fd_sc_hd__dfrbp_1 mem_right_track_0.sc_dff_compact_1_.sky130_fd_sc_hd__dfrbp_1/D
+ mem_right_track_0.sc_dff_compact_2_.sky130_fd_sc_hd__dfrbp_1/D mem_right_track_0.sc_dff_compact_1_.sky130_fd_sc_hd__dfrbp_1/Q_N
+ pReset clkbuf_3_6_0_prog_clk/X VGND VPWR sky130_fd_sc_hd__dfrbp_1
XPHY_1 VGND VPWR sky130_fd_sc_hd__decap_3
XFILLER_26_26 VGND VPWR sky130_fd_sc_hd__decap_4
XFILLER_13_107 VGND VPWR sky130_fd_sc_hd__fill_2
Xclkbuf_3_2_0_prog_clk clkbuf_3_3_0_prog_clk/A clkbuf_3_2_0_prog_clk/X VGND VPWR sky130_fd_sc_hd__clkbuf_1
XANTENNA_mem_top_track_16.sc_dff_compact_4_.sky130_fd_sc_hd__dfrbp_1_D mem_top_track_16.sc_dff_compact_3_.sky130_fd_sc_hd__dfrbp_1/Q
+ VGND VPWR sky130_fd_sc_hd__diode_2
XANTENNA_mem_bottom_track_9.sc_dff_compact_1_.sky130_fd_sc_hd__dfrbp_1_D mem_bottom_track_9.sc_dff_compact_1_.sky130_fd_sc_hd__dfrbp_1/D
+ VGND VPWR sky130_fd_sc_hd__diode_2
XFILLER_5_158 VGND VPWR sky130_fd_sc_hd__fill_2
XANTENNA_mem_top_track_0.sc_dff_compact_3_.sky130_fd_sc_hd__dfrbp_1_CLK clkbuf_3_2_0_prog_clk/X
+ VGND VPWR sky130_fd_sc_hd__diode_2
XFILLER_23_38 VGND VPWR sky130_fd_sc_hd__fill_2
XFILLER_1_150 VGND VPWR sky130_fd_sc_hd__fill_2
XFILLER_18_27 VGND VPWR sky130_fd_sc_hd__fill_2
X_25_ chany_top_in[5] chany_bottom_out[6] VGND VPWR sky130_fd_sc_hd__buf_2
XFILLER_19_146 VGND VPWR sky130_fd_sc_hd__decap_12
XANTENNA_clkbuf_2_2_0_prog_clk_A clkbuf_2_2_0_prog_clk/A VGND VPWR sky130_fd_sc_hd__diode_2
X_08_ _08_/HI chany_bottom_out[0] VGND VPWR sky130_fd_sc_hd__conb_1
XANTENNA_mem_right_track_8.sc_dff_compact_1_.sky130_fd_sc_hd__dfrbp_1_CLK clkbuf_3_2_0_prog_clk/X
+ VGND VPWR sky130_fd_sc_hd__diode_2
XPHY_100 VGND VPWR sky130_fd_sc_hd__tapvpwrvgnd_1
XFILLER_16_138 VGND VPWR sky130_fd_sc_hd__fill_2
XPHY_122 VGND VPWR sky130_fd_sc_hd__tapvpwrvgnd_1
XPHY_111 VGND VPWR sky130_fd_sc_hd__tapvpwrvgnd_1
XPHY_2 VGND VPWR sky130_fd_sc_hd__decap_3
XANTENNA_mem_bottom_track_9.sc_dff_compact_4_.sky130_fd_sc_hd__dfrbp_1_D mem_bottom_track_9.sc_dff_compact_3_.sky130_fd_sc_hd__dfrbp_1/Q
+ VGND VPWR sky130_fd_sc_hd__diode_2
XFILLER_13_119 VGND VPWR sky130_fd_sc_hd__fill_1
XFILLER_7_51 VGND VPWR sky130_fd_sc_hd__fill_1
XFILLER_16_93 VGND VPWR sky130_fd_sc_hd__fill_2
XANTENNA_mem_bottom_track_1.sc_dff_compact_2_.sky130_fd_sc_hd__dfrbp_1_CLK clkbuf_3_2_0_prog_clk/X
+ VGND VPWR sky130_fd_sc_hd__diode_2
XFILLER_16_71 VGND VPWR sky130_fd_sc_hd__fill_2
XFILLER_4_30 VGND VPWR sky130_fd_sc_hd__fill_1
XFILLER_4_85 VGND VPWR sky130_fd_sc_hd__fill_2
XANTENNA_mem_left_track_17.sc_dff_compact_2_.sky130_fd_sc_hd__dfrbp_1_RESET_B pReset
+ VGND VPWR sky130_fd_sc_hd__diode_2
XFILLER_13_50 VGND VPWR sky130_fd_sc_hd__fill_2
Xmem_left_track_9.sc_dff_compact_0_.sky130_fd_sc_hd__dfrbp_1 mem_left_track_9.sc_dff_compact_0_.sky130_fd_sc_hd__dfrbp_1/D
+ mem_left_track_9.sc_dff_compact_1_.sky130_fd_sc_hd__dfrbp_1/D mem_left_track_9.sc_dff_compact_0_.sky130_fd_sc_hd__dfrbp_1/Q_N
+ pReset clkbuf_3_6_0_prog_clk/X VGND VPWR sky130_fd_sc_hd__dfrbp_1
Xmem_top_track_8.sc_dff_compact_4_.sky130_fd_sc_hd__dfrbp_1 mem_top_track_8.sc_dff_compact_3_.sky130_fd_sc_hd__dfrbp_1/Q
+ mem_top_track_8.sc_dff_compact_5_.sky130_fd_sc_hd__dfrbp_1/D mem_top_track_8.sc_dff_compact_4_.sky130_fd_sc_hd__dfrbp_1/Q_N
+ pReset clkbuf_3_6_0_prog_clk/X VGND VPWR sky130_fd_sc_hd__dfrbp_1
Xmem_bottom_track_1.sc_dff_compact_7_.sky130_fd_sc_hd__dfrbp_1 mem_bottom_track_1.sc_dff_compact_7_.sky130_fd_sc_hd__dfrbp_1/D
+ mem_bottom_track_1.sc_dff_compact_7_.sky130_fd_sc_hd__dfrbp_1/Q mem_bottom_track_1.sc_dff_compact_7_.sky130_fd_sc_hd__dfrbp_1/Q_N
+ pReset clkbuf_3_6_0_prog_clk/X VGND VPWR sky130_fd_sc_hd__dfrbp_1
XFILLER_24_93 VGND VPWR sky130_fd_sc_hd__fill_2
XFILLER_24_71 VGND VPWR sky130_fd_sc_hd__fill_2
XANTENNA_mem_bottom_track_9.sc_dff_compact_7_.sky130_fd_sc_hd__dfrbp_1_D mem_bottom_track_9.sc_dff_compact_7_.sky130_fd_sc_hd__dfrbp_1/D
+ VGND VPWR sky130_fd_sc_hd__diode_2
X_24_ chany_top_in[6] chany_bottom_out[7] VGND VPWR sky130_fd_sc_hd__buf_2
XANTENNA_mem_left_track_1.sc_dff_compact_3_.sky130_fd_sc_hd__dfrbp_1_CLK clkbuf_3_0_0_prog_clk/X
+ VGND VPWR sky130_fd_sc_hd__diode_2
XFILLER_10_40 VGND VPWR sky130_fd_sc_hd__fill_2
XFILLER_10_73 VGND VPWR sky130_fd_sc_hd__fill_2
XFILLER_19_158 VGND VPWR sky130_fd_sc_hd__fill_2
XFILLER_19_103 VGND VPWR sky130_fd_sc_hd__fill_2
X_07_ _07_/HI chany_bottom_out[4] VGND VPWR sky130_fd_sc_hd__conb_1
XPHY_123 VGND VPWR sky130_fd_sc_hd__tapvpwrvgnd_1
XPHY_112 VGND VPWR sky130_fd_sc_hd__tapvpwrvgnd_1
XANTENNA_mem_top_track_8.sc_dff_compact_3_.sky130_fd_sc_hd__dfrbp_1_CLK clkbuf_3_7_0_prog_clk/X
+ VGND VPWR sky130_fd_sc_hd__diode_2
XPHY_101 VGND VPWR sky130_fd_sc_hd__tapvpwrvgnd_1
XANTENNA_mem_top_track_0.sc_dff_compact_1_.sky130_fd_sc_hd__dfrbp_1_RESET_B pReset
+ VGND VPWR sky130_fd_sc_hd__diode_2
XPHY_3 VGND VPWR sky130_fd_sc_hd__decap_3
XFILLER_16_83 VGND VPWR sky130_fd_sc_hd__decap_4
XANTENNA_mem_left_track_1.sc_dff_compact_1_.sky130_fd_sc_hd__dfrbp_1_RESET_B pReset
+ VGND VPWR sky130_fd_sc_hd__diode_2
XFILLER_12_142 VGND VPWR sky130_fd_sc_hd__decap_8
XFILLER_8_124 VGND VPWR sky130_fd_sc_hd__fill_2
XFILLER_8_146 VGND VPWR sky130_fd_sc_hd__fill_2
XANTENNA_mem_right_track_16.sc_dff_compact_2_.sky130_fd_sc_hd__dfrbp_1_CLK clkbuf_3_4_0_prog_clk/X
+ VGND VPWR sky130_fd_sc_hd__diode_2
Xmem_top_track_0.sc_dff_compact_1_.sky130_fd_sc_hd__dfrbp_1 mem_top_track_0.sc_dff_compact_1_.sky130_fd_sc_hd__dfrbp_1/D
+ mem_top_track_0.sc_dff_compact_2_.sky130_fd_sc_hd__dfrbp_1/D mem_top_track_0.sc_dff_compact_1_.sky130_fd_sc_hd__dfrbp_1/Q_N
+ pReset clkbuf_3_2_0_prog_clk/X VGND VPWR sky130_fd_sc_hd__dfrbp_1
XANTENNA_mem_right_track_0.sc_dff_compact_5_.sky130_fd_sc_hd__dfrbp_1_RESET_B pReset
+ VGND VPWR sky130_fd_sc_hd__diode_2
XANTENNA_mem_bottom_track_9.sc_dff_compact_2_.sky130_fd_sc_hd__dfrbp_1_RESET_B pReset
+ VGND VPWR sky130_fd_sc_hd__diode_2
XFILLER_13_95 VGND VPWR sky130_fd_sc_hd__fill_2