* NGSPICE file created from cby_0__1_.ext - technology: sky130A

* Black-box entry subcircuit for sky130_fd_sc_hd__decap_8 abstract view
.subckt sky130_fd_sc_hd__decap_8 VGND VPWR
.ends

* Black-box entry subcircuit for sky130_fd_sc_hd__decap_12 abstract view
.subckt sky130_fd_sc_hd__decap_12 VGND VPWR
.ends

* Black-box entry subcircuit for sky130_fd_sc_hd__dfrbp_1 abstract view
.subckt sky130_fd_sc_hd__dfrbp_1 D Q Q_N RESET_B CLK VGND VPWR
.ends

* Black-box entry subcircuit for sky130_fd_sc_hd__fill_2 abstract view
.subckt sky130_fd_sc_hd__fill_2 VGND VPWR
.ends

* Black-box entry subcircuit for sky130_fd_sc_hd__fill_1 abstract view
.subckt sky130_fd_sc_hd__fill_1 VGND VPWR
.ends

* Black-box entry subcircuit for sky130_fd_sc_hd__diode_2 abstract view
.subckt sky130_fd_sc_hd__diode_2 DIODE VGND VPWR
.ends

* Black-box entry subcircuit for sky130_fd_sc_hd__decap_4 abstract view
.subckt sky130_fd_sc_hd__decap_4 VGND VPWR
.ends

* Black-box entry subcircuit for sky130_fd_sc_hd__decap_3 abstract view
.subckt sky130_fd_sc_hd__decap_3 VGND VPWR
.ends

* Black-box entry subcircuit for sky130_fd_sc_hd__tapvpwrvgnd_1 abstract view
.subckt sky130_fd_sc_hd__tapvpwrvgnd_1 VGND VPWR
.ends

* Black-box entry subcircuit for sky130_fd_sc_hd__decap_6 abstract view
.subckt sky130_fd_sc_hd__decap_6 VGND VPWR
.ends

* Black-box entry subcircuit for sky130_fd_sc_hd__clkbuf_1 abstract view
.subckt sky130_fd_sc_hd__clkbuf_1 A X VGND VPWR
.ends

* Black-box entry subcircuit for sky130_fd_sc_hd__buf_2 abstract view
.subckt sky130_fd_sc_hd__buf_2 A X VGND VPWR
.ends

* Black-box entry subcircuit for sky130_fd_sc_hd__conb_1 abstract view
.subckt sky130_fd_sc_hd__conb_1 HI LO VGND VPWR
.ends

* Black-box entry subcircuit for sky130_fd_sc_hd__clkbuf_16 abstract view
.subckt sky130_fd_sc_hd__clkbuf_16 A X VGND VPWR
.ends

.subckt cby_0__1_ ccff_head ccff_tail chany_bottom_in[0] chany_bottom_in[1] chany_bottom_in[2]
+ chany_bottom_in[3] chany_bottom_in[4] chany_bottom_in[5] chany_bottom_in[6] chany_bottom_in[7]
+ chany_bottom_in[8] chany_bottom_out[0] chany_bottom_out[1] chany_bottom_out[2] chany_bottom_out[3]
+ chany_bottom_out[4] chany_bottom_out[5] chany_bottom_out[6] chany_bottom_out[7]
+ chany_bottom_out[8] chany_top_in[0] chany_top_in[1] chany_top_in[2] chany_top_in[3]
+ chany_top_in[4] chany_top_in[5] chany_top_in[6] chany_top_in[7] chany_top_in[8]
+ chany_top_out[0] chany_top_out[1] chany_top_out[2] chany_top_out[3] chany_top_out[4]
+ chany_top_out[5] chany_top_out[6] chany_top_out[7] chany_top_out[8] left_grid_pin_0_
+ left_grid_pin_10_ left_grid_pin_12_ left_grid_pin_14_ left_grid_pin_2_ left_grid_pin_4_
+ left_grid_pin_6_ left_grid_pin_8_ pReset prog_clk right_grid_pin_3_ right_grid_pin_7_
+ VPWR VGND
XFILLER_22_166 VGND VPWR sky130_fd_sc_hd__decap_8
XFILLER_22_133 VGND VPWR sky130_fd_sc_hd__decap_12
Xmem_right_ipin_7.sc_dff_compact_2_.sky130_fd_sc_hd__dfrbp_1 mem_right_ipin_7.sc_dff_compact_2_.sky130_fd_sc_hd__dfrbp_1/D
+ mem_right_ipin_7.sc_dff_compact_3_.sky130_fd_sc_hd__dfrbp_1/D mem_right_ipin_7.sc_dff_compact_2_.sky130_fd_sc_hd__dfrbp_1/Q_N
+ pReset clkbuf_2_1_0_prog_clk/X VGND VPWR sky130_fd_sc_hd__dfrbp_1
XFILLER_26_52 VGND VPWR sky130_fd_sc_hd__decap_12
XFILLER_13_133 VGND VPWR sky130_fd_sc_hd__fill_2
XFILLER_3_34 VGND VPWR sky130_fd_sc_hd__fill_1
XANTENNA_mem_right_ipin_7.sc_dff_compact_3_.sky130_fd_sc_hd__dfrbp_1_D mem_right_ipin_7.sc_dff_compact_3_.sky130_fd_sc_hd__dfrbp_1/D
+ VGND VPWR sky130_fd_sc_hd__diode_2
Xmem_right_ipin_4.sc_dff_compact_3_.sky130_fd_sc_hd__dfrbp_1 mem_right_ipin_4.sc_dff_compact_2_.sky130_fd_sc_hd__dfrbp_1/Q
+ mem_right_ipin_4.sc_dff_compact_4_.sky130_fd_sc_hd__dfrbp_1/D mem_right_ipin_4.sc_dff_compact_3_.sky130_fd_sc_hd__dfrbp_1/Q_N
+ pReset clkbuf_2_1_0_prog_clk/X VGND VPWR sky130_fd_sc_hd__dfrbp_1
XFILLER_12_87 VGND VPWR sky130_fd_sc_hd__decap_4
XFILLER_12_32 VGND VPWR sky130_fd_sc_hd__decap_8
XFILLER_5_184 VGND VPWR sky130_fd_sc_hd__decap_12
XFILLER_23_75 VGND VPWR sky130_fd_sc_hd__fill_2
Xmem_right_ipin_1.sc_dff_compact_4_.sky130_fd_sc_hd__dfrbp_1 mem_right_ipin_1.sc_dff_compact_3_.sky130_fd_sc_hd__dfrbp_1/Q
+ mem_right_ipin_1.sc_dff_compact_4_.sky130_fd_sc_hd__dfrbp_1/Q mem_right_ipin_1.sc_dff_compact_4_.sky130_fd_sc_hd__dfrbp_1/Q_N
+ pReset clkbuf_2_2_0_prog_clk/X VGND VPWR sky130_fd_sc_hd__dfrbp_1
XFILLER_2_154 VGND VPWR sky130_fd_sc_hd__decap_12
XFILLER_2_143 VGND VPWR sky130_fd_sc_hd__decap_8
XFILLER_9_99 VGND VPWR sky130_fd_sc_hd__decap_12
XANTENNA_clkbuf_2_1_0_prog_clk_A clkbuf_2_1_0_prog_clk/A VGND VPWR sky130_fd_sc_hd__diode_2
XFILLER_18_86 VGND VPWR sky130_fd_sc_hd__fill_2
XFILLER_18_64 VGND VPWR sky130_fd_sc_hd__decap_3
XFILLER_20_87 VGND VPWR sky130_fd_sc_hd__fill_1
XFILLER_20_32 VGND VPWR sky130_fd_sc_hd__decap_12
XFILLER_13_3 VGND VPWR sky130_fd_sc_hd__decap_3
XFILLER_6_12 VGND VPWR sky130_fd_sc_hd__decap_12
XFILLER_6_56 VGND VPWR sky130_fd_sc_hd__decap_12
XFILLER_31_42 VGND VPWR sky130_fd_sc_hd__decap_12
XFILLER_25_120 VGND VPWR sky130_fd_sc_hd__fill_2
XPHY_170 VGND VPWR sky130_fd_sc_hd__tapvpwrvgnd_1
XFILLER_31_123 VGND VPWR sky130_fd_sc_hd__fill_2
XFILLER_31_112 VGND VPWR sky130_fd_sc_hd__fill_2
XFILLER_16_197 VGND VPWR sky130_fd_sc_hd__fill_1
XFILLER_22_145 VGND VPWR sky130_fd_sc_hd__decap_8
XFILLER_22_101 VGND VPWR sky130_fd_sc_hd__decap_8
XFILLER_26_75 VGND VPWR sky130_fd_sc_hd__decap_12
XFILLER_26_64 VGND VPWR sky130_fd_sc_hd__decap_4
XFILLER_13_123 VGND VPWR sky130_fd_sc_hd__decap_4
XFILLER_3_68 VGND VPWR sky130_fd_sc_hd__fill_2
XFILLER_9_116 VGND VPWR sky130_fd_sc_hd__fill_2
XFILLER_9_127 VGND VPWR sky130_fd_sc_hd__fill_2
XFILLER_12_66 VGND VPWR sky130_fd_sc_hd__decap_6
XFILLER_12_11 VGND VPWR sky130_fd_sc_hd__fill_1
XFILLER_5_196 VGND VPWR sky130_fd_sc_hd__fill_2
XFILLER_23_54 VGND VPWR sky130_fd_sc_hd__decap_6
XFILLER_2_166 VGND VPWR sky130_fd_sc_hd__decap_8
XANTENNA_mem_right_ipin_0.sc_dff_compact_4_.sky130_fd_sc_hd__dfrbp_1_RESET_B pReset
+ VGND VPWR sky130_fd_sc_hd__diode_2
XANTENNA_mem_right_ipin_2.sc_dff_compact_5_.sky130_fd_sc_hd__dfrbp_1_RESET_B pReset
+ VGND VPWR sky130_fd_sc_hd__diode_2
XFILLER_18_32 VGND VPWR sky130_fd_sc_hd__fill_2
XFILLER_29_42 VGND VPWR sky130_fd_sc_hd__decap_12
XFILLER_20_55 VGND VPWR sky130_fd_sc_hd__decap_12
XFILLER_20_44 VGND VPWR sky130_fd_sc_hd__decap_8
XFILLER_19_184 VGND VPWR sky130_fd_sc_hd__decap_12
XFILLER_6_24 VGND VPWR sky130_fd_sc_hd__decap_6
XFILLER_6_68 VGND VPWR sky130_fd_sc_hd__decap_12
XFILLER_15_55 VGND VPWR sky130_fd_sc_hd__decap_6
XPHY_171 VGND VPWR sky130_fd_sc_hd__tapvpwrvgnd_1
XFILLER_31_179 VGND VPWR sky130_fd_sc_hd__decap_4
XFILLER_31_54 VGND VPWR sky130_fd_sc_hd__decap_3
XPHY_160 VGND VPWR sky130_fd_sc_hd__tapvpwrvgnd_1
XFILLER_16_154 VGND VPWR sky130_fd_sc_hd__decap_12
XFILLER_26_87 VGND VPWR sky130_fd_sc_hd__decap_4
XFILLER_26_32 VGND VPWR sky130_fd_sc_hd__fill_2
XFILLER_21_190 VGND VPWR sky130_fd_sc_hd__fill_2
XFILLER_12_190 VGND VPWR sky130_fd_sc_hd__decap_8
XANTENNA_mem_right_ipin_0.sc_dff_compact_4_.sky130_fd_sc_hd__dfrbp_1_CLK clkbuf_2_2_0_prog_clk/X
+ VGND VPWR sky130_fd_sc_hd__diode_2
XANTENNA_mem_right_ipin_1.sc_dff_compact_5_.sky130_fd_sc_hd__dfrbp_1_CLK clkbuf_2_2_0_prog_clk/X
+ VGND VPWR sky130_fd_sc_hd__diode_2
XFILLER_10_105 VGND VPWR sky130_fd_sc_hd__decap_12
Xmem_right_ipin_6.sc_dff_compact_1_.sky130_fd_sc_hd__dfrbp_1 mem_right_ipin_6.sc_dff_compact_0_.sky130_fd_sc_hd__dfrbp_1/Q
+ mem_right_ipin_6.sc_dff_compact_1_.sky130_fd_sc_hd__dfrbp_1/Q mem_right_ipin_6.sc_dff_compact_1_.sky130_fd_sc_hd__dfrbp_1/Q_N
+ pReset clkbuf_2_0_0_prog_clk/X VGND VPWR sky130_fd_sc_hd__dfrbp_1
XFILLER_23_44 VGND VPWR sky130_fd_sc_hd__decap_3
XFILLER_3_3 VGND VPWR sky130_fd_sc_hd__decap_4
XFILLER_0_15 VGND VPWR sky130_fd_sc_hd__decap_12
Xmem_left_ipin_0.sc_dff_compact_2_.sky130_fd_sc_hd__dfrbp_1 mem_left_ipin_0.sc_dff_compact_2_.sky130_fd_sc_hd__dfrbp_1/D
+ mem_left_ipin_0.sc_dff_compact_3_.sky130_fd_sc_hd__dfrbp_1/D mem_left_ipin_0.sc_dff_compact_2_.sky130_fd_sc_hd__dfrbp_1/Q_N
+ pReset clkbuf_2_0_0_prog_clk/X VGND VPWR sky130_fd_sc_hd__dfrbp_1
Xmem_right_ipin_3.sc_dff_compact_2_.sky130_fd_sc_hd__dfrbp_1 mem_right_ipin_3.sc_dff_compact_1_.sky130_fd_sc_hd__dfrbp_1/Q
+ mem_right_ipin_3.sc_dff_compact_2_.sky130_fd_sc_hd__dfrbp_1/Q mem_right_ipin_3.sc_dff_compact_2_.sky130_fd_sc_hd__dfrbp_1/Q_N
+ pReset clkbuf_2_3_0_prog_clk/X VGND VPWR sky130_fd_sc_hd__dfrbp_1
XFILLER_9_46 VGND VPWR sky130_fd_sc_hd__decap_8
Xmem_right_ipin_0.sc_dff_compact_3_.sky130_fd_sc_hd__dfrbp_1 mem_right_ipin_0.sc_dff_compact_3_.sky130_fd_sc_hd__dfrbp_1/D
+ mem_right_ipin_0.sc_dff_compact_3_.sky130_fd_sc_hd__dfrbp_1/Q mem_right_ipin_0.sc_dff_compact_3_.sky130_fd_sc_hd__dfrbp_1/Q_N
+ pReset clkbuf_2_2_0_prog_clk/X VGND VPWR sky130_fd_sc_hd__dfrbp_1
XANTENNA_clkbuf_1_0_0_prog_clk_A clkbuf_0_prog_clk/X VGND VPWR sky130_fd_sc_hd__diode_2
XFILLER_29_54 VGND VPWR sky130_fd_sc_hd__decap_3
XFILLER_28_152 VGND VPWR sky130_fd_sc_hd__fill_1
XFILLER_19_196 VGND VPWR sky130_fd_sc_hd__fill_2
XFILLER_31_99 VGND VPWR sky130_fd_sc_hd__fill_2
XFILLER_16_166 VGND VPWR sky130_fd_sc_hd__decap_8
XFILLER_16_133 VGND VPWR sky130_fd_sc_hd__fill_1
XPHY_172 VGND VPWR sky130_fd_sc_hd__tapvpwrvgnd_1
XFILLER_31_169 VGND VPWR sky130_fd_sc_hd__fill_2
XPHY_161 VGND VPWR sky130_fd_sc_hd__tapvpwrvgnd_1
XPHY_150 VGND VPWR sky130_fd_sc_hd__tapvpwrvgnd_1
Xclkbuf_2_1_0_prog_clk clkbuf_2_1_0_prog_clk/A clkbuf_2_1_0_prog_clk/X VGND VPWR sky130_fd_sc_hd__clkbuf_1
XFILLER_13_158 VGND VPWR sky130_fd_sc_hd__decap_12
XFILLER_3_26 VGND VPWR sky130_fd_sc_hd__decap_8
XFILLER_8_140 VGND VPWR sky130_fd_sc_hd__fill_2
XFILLER_10_117 VGND VPWR sky130_fd_sc_hd__decap_4
XFILLER_5_121 VGND VPWR sky130_fd_sc_hd__fill_1
XANTENNA_mem_right_ipin_1.sc_dff_compact_5_.sky130_fd_sc_hd__dfrbp_1_RESET_B pReset
+ VGND VPWR sky130_fd_sc_hd__diode_2
XFILLER_4_80 VGND VPWR sky130_fd_sc_hd__decap_12
XANTENNA__12__A chany_top_in[6] VGND VPWR sky130_fd_sc_hd__diode_2
XFILLER_0_27 VGND VPWR sky130_fd_sc_hd__decap_4
XFILLER_29_3 VGND VPWR sky130_fd_sc_hd__fill_2
XFILLER_18_12 VGND VPWR sky130_fd_sc_hd__decap_4
XANTENNA_mem_right_ipin_4.sc_dff_compact_0_.sky130_fd_sc_hd__dfrbp_1_CLK clkbuf_2_1_0_prog_clk/X
+ VGND VPWR sky130_fd_sc_hd__diode_2
XANTENNA_mem_right_ipin_5.sc_dff_compact_1_.sky130_fd_sc_hd__dfrbp_1_CLK clkbuf_2_2_0_prog_clk/X
+ VGND VPWR sky130_fd_sc_hd__diode_2
XANTENNA_mem_right_ipin_6.sc_dff_compact_2_.sky130_fd_sc_hd__dfrbp_1_CLK clkbuf_2_0_0_prog_clk/X
+ VGND VPWR sky130_fd_sc_hd__diode_2
XFILLER_29_99 VGND VPWR sky130_fd_sc_hd__fill_2
XFILLER_29_88 VGND VPWR sky130_fd_sc_hd__decap_4
XANTENNA_mem_right_ipin_7.sc_dff_compact_3_.sky130_fd_sc_hd__dfrbp_1_CLK clkbuf_2_1_0_prog_clk/X
+ VGND VPWR sky130_fd_sc_hd__diode_2
XFILLER_28_197 VGND VPWR sky130_fd_sc_hd__fill_1
XFILLER_19_131 VGND VPWR sky130_fd_sc_hd__fill_2
XFILLER_31_89 VGND VPWR sky130_fd_sc_hd__decap_8
XFILLER_25_123 VGND VPWR sky130_fd_sc_hd__decap_3
XFILLER_15_13 VGND VPWR sky130_fd_sc_hd__decap_12
XANTENNA__20__A chany_bottom_in[7] VGND VPWR sky130_fd_sc_hd__diode_2
XPHY_173 VGND VPWR sky130_fd_sc_hd__tapvpwrvgnd_1
XFILLER_31_148 VGND VPWR sky130_fd_sc_hd__decap_12
XFILLER_31_104 VGND VPWR sky130_fd_sc_hd__fill_2
XPHY_162 VGND VPWR sky130_fd_sc_hd__tapvpwrvgnd_1
XPHY_151 VGND VPWR sky130_fd_sc_hd__tapvpwrvgnd_1
XPHY_140 VGND VPWR sky130_fd_sc_hd__tapvpwrvgnd_1
XFILLER_11_3 VGND VPWR sky130_fd_sc_hd__fill_2
XFILLER_22_115 VGND VPWR sky130_fd_sc_hd__fill_2
XANTENNA_mem_left_ipin_0.sc_dff_compact_3_.sky130_fd_sc_hd__dfrbp_1_CLK clkbuf_2_0_0_prog_clk/X
+ VGND VPWR sky130_fd_sc_hd__diode_2
XANTENNA__15__A chany_top_in[3] VGND VPWR sky130_fd_sc_hd__diode_2
Xmem_right_ipin_7.sc_dff_compact_5_.sky130_fd_sc_hd__dfrbp_1 mem_right_ipin_7.sc_dff_compact_5_.sky130_fd_sc_hd__dfrbp_1/D
+ ccff_tail mem_right_ipin_7.sc_dff_compact_5_.sky130_fd_sc_hd__dfrbp_1/Q_N pReset
+ clkbuf_2_1_0_prog_clk/X VGND VPWR sky130_fd_sc_hd__dfrbp_1
XFILLER_8_152 VGND VPWR sky130_fd_sc_hd__fill_1
XFILLER_23_13 VGND VPWR sky130_fd_sc_hd__fill_2
XFILLER_9_59 VGND VPWR sky130_fd_sc_hd__fill_2
Xmem_right_ipin_5.sc_dff_compact_0_.sky130_fd_sc_hd__dfrbp_1 mem_right_ipin_4.sc_dff_compact_5_.sky130_fd_sc_hd__dfrbp_1/Q
+ mem_right_ipin_5.sc_dff_compact_0_.sky130_fd_sc_hd__dfrbp_1/Q mem_right_ipin_5.sc_dff_compact_0_.sky130_fd_sc_hd__dfrbp_1/Q_N
+ pReset clkbuf_2_3_0_prog_clk/X VGND VPWR sky130_fd_sc_hd__dfrbp_1
XFILLER_18_57 VGND VPWR sky130_fd_sc_hd__decap_4
XANTENNA__23__A chany_bottom_in[4] VGND VPWR sky130_fd_sc_hd__diode_2
Xmem_right_ipin_2.sc_dff_compact_1_.sky130_fd_sc_hd__dfrbp_1 mem_right_ipin_2.sc_dff_compact_1_.sky130_fd_sc_hd__dfrbp_1/D
+ mem_right_ipin_2.sc_dff_compact_1_.sky130_fd_sc_hd__dfrbp_1/Q mem_right_ipin_2.sc_dff_compact_1_.sky130_fd_sc_hd__dfrbp_1/Q_N
+ pReset clkbuf_2_3_0_prog_clk/X VGND VPWR sky130_fd_sc_hd__dfrbp_1
XFILLER_29_34 VGND VPWR sky130_fd_sc_hd__fill_2
XFILLER_28_154 VGND VPWR sky130_fd_sc_hd__fill_2
XFILLER_28_132 VGND VPWR sky130_fd_sc_hd__decap_12
XFILLER_20_69 VGND VPWR sky130_fd_sc_hd__decap_12
XANTENNA__18__A chany_top_in[0] VGND VPWR sky130_fd_sc_hd__diode_2
XFILLER_19_121 VGND VPWR sky130_fd_sc_hd__fill_1
XFILLER_15_47 VGND VPWR sky130_fd_sc_hd__fill_2
XFILLER_15_25 VGND VPWR sky130_fd_sc_hd__decap_12
XANTENNA_mem_right_ipin_0.sc_dff_compact_1_.sky130_fd_sc_hd__dfrbp_1_D mem_right_ipin_0.sc_dff_compact_1_.sky130_fd_sc_hd__dfrbp_1/D
+ VGND VPWR sky130_fd_sc_hd__diode_2
XANTENNA_mem_left_ipin_0.sc_dff_compact_1_.sky130_fd_sc_hd__dfrbp_1_D mem_left_ipin_0.sc_dff_compact_1_.sky130_fd_sc_hd__dfrbp_1/D
+ VGND VPWR sky130_fd_sc_hd__diode_2
XPHY_174 VGND VPWR sky130_fd_sc_hd__tapvpwrvgnd_1
XFILLER_31_116 VGND VPWR sky130_fd_sc_hd__fill_2
XPHY_163 VGND VPWR sky130_fd_sc_hd__tapvpwrvgnd_1
XPHY_152 VGND VPWR sky130_fd_sc_hd__tapvpwrvgnd_1
XFILLER_24_190 VGND VPWR sky130_fd_sc_hd__decap_8
XPHY_141 VGND VPWR sky130_fd_sc_hd__tapvpwrvgnd_1
XPHY_130 VGND VPWR sky130_fd_sc_hd__tapvpwrvgnd_1
XFILLER_7_81 VGND VPWR sky130_fd_sc_hd__fill_2
XFILLER_26_68 VGND VPWR sky130_fd_sc_hd__fill_1
XFILLER_3_39 VGND VPWR sky130_fd_sc_hd__fill_2
XANTENNA_mem_right_ipin_0.sc_dff_compact_5_.sky130_fd_sc_hd__dfrbp_1_RESET_B pReset
+ VGND VPWR sky130_fd_sc_hd__diode_2
XFILLER_12_15 VGND VPWR sky130_fd_sc_hd__decap_12
XANTENNA__26__A chany_bottom_in[1] VGND VPWR sky130_fd_sc_hd__diode_2
XFILLER_5_123 VGND VPWR sky130_fd_sc_hd__decap_12
XFILLER_4_93 VGND VPWR sky130_fd_sc_hd__decap_12
XFILLER_2_137 VGND VPWR sky130_fd_sc_hd__decap_3
XANTENNA_mem_left_ipin_0.sc_dff_compact_4_.sky130_fd_sc_hd__dfrbp_1_D mem_left_ipin_0.sc_dff_compact_3_.sky130_fd_sc_hd__dfrbp_1/Q
+ VGND VPWR sky130_fd_sc_hd__diode_2
XFILLER_18_69 VGND VPWR sky130_fd_sc_hd__fill_2
XFILLER_1_3 VGND VPWR sky130_fd_sc_hd__decap_12
XANTENNA_mem_right_ipin_0.sc_dff_compact_4_.sky130_fd_sc_hd__dfrbp_1_D mem_right_ipin_0.sc_dff_compact_3_.sky130_fd_sc_hd__dfrbp_1/Q
+ VGND VPWR sky130_fd_sc_hd__diode_2
X_27_ chany_bottom_in[0] chany_top_out[0] VGND VPWR sky130_fd_sc_hd__buf_2
XFILLER_28_144 VGND VPWR sky130_fd_sc_hd__decap_8
XFILLER_20_15 VGND VPWR sky130_fd_sc_hd__fill_1
XFILLER_19_90 VGND VPWR sky130_fd_sc_hd__fill_2
XFILLER_13_8 VGND VPWR sky130_fd_sc_hd__fill_2
XFILLER_10_81 VGND VPWR sky130_fd_sc_hd__decap_8
XFILLER_33_180 VGND VPWR sky130_fd_sc_hd__decap_6
XFILLER_15_37 VGND VPWR sky130_fd_sc_hd__decap_8
XPHY_175 VGND VPWR sky130_fd_sc_hd__tapvpwrvgnd_1
XPHY_164 VGND VPWR sky130_fd_sc_hd__tapvpwrvgnd_1
XPHY_153 VGND VPWR sky130_fd_sc_hd__tapvpwrvgnd_1
XPHY_142 VGND VPWR sky130_fd_sc_hd__tapvpwrvgnd_1
XPHY_131 VGND VPWR sky130_fd_sc_hd__tapvpwrvgnd_1
XFILLER_16_136 VGND VPWR sky130_fd_sc_hd__decap_12
XPHY_120 VGND VPWR sky130_fd_sc_hd__tapvpwrvgnd_1
XFILLER_30_150 VGND VPWR sky130_fd_sc_hd__decap_3
XPHY_0 VGND VPWR sky130_fd_sc_hd__decap_3
XFILLER_26_36 VGND VPWR sky130_fd_sc_hd__fill_2
XFILLER_21_194 VGND VPWR sky130_fd_sc_hd__decap_4
XFILLER_16_80 VGND VPWR sky130_fd_sc_hd__fill_2
XANTENNA_mem_right_ipin_1.sc_dff_compact_2_.sky130_fd_sc_hd__dfrbp_1_D mem_right_ipin_1.sc_dff_compact_1_.sky130_fd_sc_hd__dfrbp_1/Q
+ VGND VPWR sky130_fd_sc_hd__diode_2
XFILLER_8_154 VGND VPWR sky130_fd_sc_hd__decap_12
XFILLER_12_27 VGND VPWR sky130_fd_sc_hd__decap_4
Xclkbuf_2_0_0_prog_clk clkbuf_2_1_0_prog_clk/A clkbuf_2_0_0_prog_clk/X VGND VPWR sky130_fd_sc_hd__clkbuf_1
XFILLER_5_102 VGND VPWR sky130_fd_sc_hd__fill_1
XFILLER_5_113 VGND VPWR sky130_fd_sc_hd__decap_8
XFILLER_5_135 VGND VPWR sky130_fd_sc_hd__decap_12
Xmem_right_ipin_6.sc_dff_compact_4_.sky130_fd_sc_hd__dfrbp_1 mem_right_ipin_6.sc_dff_compact_4_.sky130_fd_sc_hd__dfrbp_1/D
+ mem_right_ipin_6.sc_dff_compact_4_.sky130_fd_sc_hd__dfrbp_1/Q mem_right_ipin_6.sc_dff_compact_4_.sky130_fd_sc_hd__dfrbp_1/Q_N
+ pReset clkbuf_2_1_0_prog_clk/X VGND VPWR sky130_fd_sc_hd__dfrbp_1
XFILLER_2_105 VGND VPWR sky130_fd_sc_hd__decap_12
XFILLER_9_17 VGND VPWR sky130_fd_sc_hd__fill_2
XFILLER_1_171 VGND VPWR sky130_fd_sc_hd__decap_6
Xmem_left_ipin_0.sc_dff_compact_5_.sky130_fd_sc_hd__dfrbp_1 mem_left_ipin_0.sc_dff_compact_5_.sky130_fd_sc_hd__dfrbp_1/D
+ mem_left_ipin_1.sc_dff_compact_0_.sky130_fd_sc_hd__dfrbp_1/D mem_left_ipin_0.sc_dff_compact_5_.sky130_fd_sc_hd__dfrbp_1/Q_N
+ pReset clkbuf_2_0_0_prog_clk/X VGND VPWR sky130_fd_sc_hd__dfrbp_1
Xmem_right_ipin_3.sc_dff_compact_5_.sky130_fd_sc_hd__dfrbp_1 mem_right_ipin_3.sc_dff_compact_5_.sky130_fd_sc_hd__dfrbp_1/D
+ mem_right_ipin_3.sc_dff_compact_5_.sky130_fd_sc_hd__dfrbp_1/Q mem_right_ipin_3.sc_dff_compact_5_.sky130_fd_sc_hd__dfrbp_1/Q_N
+ pReset clkbuf_2_1_0_prog_clk/X VGND VPWR sky130_fd_sc_hd__dfrbp_1
XFILLER_27_3 VGND VPWR sky130_fd_sc_hd__decap_12
XFILLER_24_91 VGND VPWR sky130_fd_sc_hd__fill_1
XANTENNA_mem_right_ipin_2.sc_dff_compact_0_.sky130_fd_sc_hd__dfrbp_1_D mem_right_ipin_1.sc_dff_compact_5_.sky130_fd_sc_hd__dfrbp_1/Q
+ VGND VPWR sky130_fd_sc_hd__diode_2
XFILLER_28_123 VGND VPWR sky130_fd_sc_hd__fill_1
XFILLER_1_62 VGND VPWR sky130_fd_sc_hd__decap_12
XFILLER_1_51 VGND VPWR sky130_fd_sc_hd__decap_8
X_26_ chany_bottom_in[1] chany_top_out[1] VGND VPWR sky130_fd_sc_hd__buf_2
XFILLER_19_156 VGND VPWR sky130_fd_sc_hd__decap_12
XFILLER_19_123 VGND VPWR sky130_fd_sc_hd__decap_6
XFILLER_19_112 VGND VPWR sky130_fd_sc_hd__fill_2
XFILLER_10_93 VGND VPWR sky130_fd_sc_hd__decap_12
X_09_ _09_/HI right_grid_pin_3_ VGND VPWR sky130_fd_sc_hd__conb_1
XFILLER_25_115 VGND VPWR sky130_fd_sc_hd__decap_3
XANTENNA_mem_right_ipin_1.sc_dff_compact_5_.sky130_fd_sc_hd__dfrbp_1_D mem_right_ipin_1.sc_dff_compact_4_.sky130_fd_sc_hd__dfrbp_1/Q
+ VGND VPWR sky130_fd_sc_hd__diode_2
XANTENNA_mem_right_ipin_1.sc_dff_compact_4_.sky130_fd_sc_hd__dfrbp_1_CLK clkbuf_2_2_0_prog_clk/X
+ VGND VPWR sky130_fd_sc_hd__diode_2
XANTENNA_mem_right_ipin_0.sc_dff_compact_3_.sky130_fd_sc_hd__dfrbp_1_CLK clkbuf_2_2_0_prog_clk/X
+ VGND VPWR sky130_fd_sc_hd__diode_2
XPHY_165 VGND VPWR sky130_fd_sc_hd__tapvpwrvgnd_1
XFILLER_31_59 VGND VPWR sky130_fd_sc_hd__fill_2
XANTENNA_mem_right_ipin_2.sc_dff_compact_5_.sky130_fd_sc_hd__dfrbp_1_CLK clkbuf_2_3_0_prog_clk/X
+ VGND VPWR sky130_fd_sc_hd__diode_2
XPHY_154 VGND VPWR sky130_fd_sc_hd__tapvpwrvgnd_1
XPHY_143 VGND VPWR sky130_fd_sc_hd__tapvpwrvgnd_1
XPHY_132 VGND VPWR sky130_fd_sc_hd__tapvpwrvgnd_1
XFILLER_16_148 VGND VPWR sky130_fd_sc_hd__decap_4
XPHY_121 VGND VPWR sky130_fd_sc_hd__tapvpwrvgnd_1
XPHY_110 VGND VPWR sky130_fd_sc_hd__tapvpwrvgnd_1
Xmem_right_ipin_1.sc_dff_compact_0_.sky130_fd_sc_hd__dfrbp_1 mem_right_ipin_1.sc_dff_compact_0_.sky130_fd_sc_hd__dfrbp_1/D
+ mem_right_ipin_1.sc_dff_compact_0_.sky130_fd_sc_hd__dfrbp_1/Q mem_right_ipin_1.sc_dff_compact_0_.sky130_fd_sc_hd__dfrbp_1/Q_N
+ pReset clkbuf_2_2_0_prog_clk/X VGND VPWR sky130_fd_sc_hd__dfrbp_1
XFILLER_22_129 VGND VPWR sky130_fd_sc_hd__fill_2
XPHY_1 VGND VPWR sky130_fd_sc_hd__decap_3
XFILLER_26_15 VGND VPWR sky130_fd_sc_hd__decap_12
XFILLER_21_184 VGND VPWR sky130_fd_sc_hd__fill_2
XFILLER_13_129 VGND VPWR sky130_fd_sc_hd__fill_2
XFILLER_32_80 VGND VPWR sky130_fd_sc_hd__decap_12
XFILLER_12_151 VGND VPWR sky130_fd_sc_hd__fill_2
XFILLER_8_144 VGND VPWR sky130_fd_sc_hd__decap_8
XFILLER_8_166 VGND VPWR sky130_fd_sc_hd__decap_12
XFILLER_5_147 VGND VPWR sky130_fd_sc_hd__decap_12
XANTENNA_mem_right_ipin_2.sc_dff_compact_3_.sky130_fd_sc_hd__dfrbp_1_D mem_right_ipin_2.sc_dff_compact_3_.sky130_fd_sc_hd__dfrbp_1/D
+ VGND VPWR sky130_fd_sc_hd__diode_2
XFILLER_2_117 VGND VPWR sky130_fd_sc_hd__decap_12
XFILLER_13_71 VGND VPWR sky130_fd_sc_hd__fill_2
X_25_ chany_bottom_in[2] chany_top_out[2] VGND VPWR sky130_fd_sc_hd__buf_2
XFILLER_1_74 VGND VPWR sky130_fd_sc_hd__decap_12
XFILLER_29_59 VGND VPWR sky130_fd_sc_hd__fill_2
XFILLER_28_179 VGND VPWR sky130_fd_sc_hd__decap_12
XANTENNA_mem_right_ipin_3.sc_dff_compact_1_.sky130_fd_sc_hd__dfrbp_1_D mem_right_ipin_3.sc_dff_compact_0_.sky130_fd_sc_hd__dfrbp_1/Q
+ VGND VPWR sky130_fd_sc_hd__diode_2
XFILLER_19_168 VGND VPWR sky130_fd_sc_hd__decap_12
XANTENNA_clkbuf_2_2_0_prog_clk_A clkbuf_2_3_0_prog_clk/A VGND VPWR sky130_fd_sc_hd__diode_2
X_08_ _08_/HI left_grid_pin_0_ VGND VPWR sky130_fd_sc_hd__conb_1
XFILLER_31_38 VGND VPWR sky130_fd_sc_hd__fill_2
XFILLER_25_149 VGND VPWR sky130_fd_sc_hd__decap_12
XFILLER_16_105 VGND VPWR sky130_fd_sc_hd__decap_12
XPHY_100 VGND VPWR sky130_fd_sc_hd__tapvpwrvgnd_1
XPHY_166 VGND VPWR sky130_fd_sc_hd__tapvpwrvgnd_1
XFILLER_31_108 VGND VPWR sky130_fd_sc_hd__fill_2
XPHY_155 VGND VPWR sky130_fd_sc_hd__tapvpwrvgnd_1
XPHY_144 VGND VPWR sky130_fd_sc_hd__tapvpwrvgnd_1
XFILLER_22_119 VGND VPWR sky130_fd_sc_hd__decap_8
XFILLER_21_82 VGND VPWR sky130_fd_sc_hd__fill_2
XPHY_133 VGND VPWR sky130_fd_sc_hd__tapvpwrvgnd_1
XPHY_122 VGND VPWR sky130_fd_sc_hd__tapvpwrvgnd_1
XPHY_111 VGND VPWR sky130_fd_sc_hd__tapvpwrvgnd_1
XPHY_2 VGND VPWR sky130_fd_sc_hd__decap_3
XFILLER_13_108 VGND VPWR sky130_fd_sc_hd__decap_12
XFILLER_7_62 VGND VPWR sky130_fd_sc_hd__decap_12
XFILLER_16_93 VGND VPWR sky130_fd_sc_hd__decap_12
XFILLER_12_130 VGND VPWR sky130_fd_sc_hd__decap_6
XFILLER_8_178 VGND VPWR sky130_fd_sc_hd__decap_12
XFILLER_5_159 VGND VPWR sky130_fd_sc_hd__decap_12
XFILLER_27_92 VGND VPWR sky130_fd_sc_hd__decap_12
XANTENNA_mem_right_ipin_5.sc_dff_compact_0_.sky130_fd_sc_hd__dfrbp_1_CLK clkbuf_2_3_0_prog_clk/X
+ VGND VPWR sky130_fd_sc_hd__diode_2
XFILLER_4_181 VGND VPWR sky130_fd_sc_hd__decap_12
XANTENNA_mem_right_ipin_7.sc_dff_compact_2_.sky130_fd_sc_hd__dfrbp_1_CLK clkbuf_2_1_0_prog_clk/X
+ VGND VPWR sky130_fd_sc_hd__diode_2
XFILLER_23_17 VGND VPWR sky130_fd_sc_hd__decap_4
XANTENNA_mem_right_ipin_6.sc_dff_compact_1_.sky130_fd_sc_hd__dfrbp_1_CLK clkbuf_2_0_0_prog_clk/X
+ VGND VPWR sky130_fd_sc_hd__diode_2
XFILLER_2_129 VGND VPWR sky130_fd_sc_hd__decap_8
XFILLER_1_184 VGND VPWR sky130_fd_sc_hd__decap_12
XANTENNA_mem_right_ipin_3.sc_dff_compact_4_.sky130_fd_sc_hd__dfrbp_1_D mem_right_ipin_3.sc_dff_compact_3_.sky130_fd_sc_hd__dfrbp_1/Q
+ VGND VPWR sky130_fd_sc_hd__diode_2
XFILLER_24_93 VGND VPWR sky130_fd_sc_hd__fill_2
Xmem_right_ipin_5.sc_dff_compact_3_.sky130_fd_sc_hd__dfrbp_1 mem_right_ipin_5.sc_dff_compact_2_.sky130_fd_sc_hd__dfrbp_1/Q
+ mem_right_ipin_5.sc_dff_compact_3_.sky130_fd_sc_hd__dfrbp_1/Q mem_right_ipin_5.sc_dff_compact_3_.sky130_fd_sc_hd__dfrbp_1/Q_N
+ pReset clkbuf_2_1_0_prog_clk/X VGND VPWR sky130_fd_sc_hd__dfrbp_1
XFILLER_20_18 VGND VPWR sky130_fd_sc_hd__decap_12
XFILLER_1_86 VGND VPWR sky130_fd_sc_hd__decap_12
X_24_ chany_bottom_in[3] chany_top_out[3] VGND VPWR sky130_fd_sc_hd__buf_2
XANTENNA_mem_left_ipin_0.sc_dff_compact_2_.sky130_fd_sc_hd__dfrbp_1_CLK clkbuf_2_0_0_prog_clk/X
+ VGND VPWR sky130_fd_sc_hd__diode_2
XFILLER_29_38 VGND VPWR sky130_fd_sc_hd__fill_2
XFILLER_32_3 VGND VPWR sky130_fd_sc_hd__fill_2
Xmem_right_ipin_2.sc_dff_compact_4_.sky130_fd_sc_hd__dfrbp_1 mem_right_ipin_2.sc_dff_compact_3_.sky130_fd_sc_hd__dfrbp_1/Q
+ mem_right_ipin_2.sc_dff_compact_5_.sky130_fd_sc_hd__dfrbp_1/D mem_right_ipin_2.sc_dff_compact_4_.sky130_fd_sc_hd__dfrbp_1/Q_N
+ pReset clkbuf_2_3_0_prog_clk/X VGND VPWR sky130_fd_sc_hd__dfrbp_1
XFILLER_19_60 VGND VPWR sky130_fd_sc_hd__fill_1
XFILLER_31_28 VGND VPWR sky130_fd_sc_hd__decap_6
XFILLER_18_180 VGND VPWR sky130_fd_sc_hd__decap_12
X_07_ _07_/HI left_grid_pin_10_ VGND VPWR sky130_fd_sc_hd__conb_1
XPHY_167 VGND VPWR sky130_fd_sc_hd__tapvpwrvgnd_1
XPHY_156 VGND VPWR sky130_fd_sc_hd__tapvpwrvgnd_1
XPHY_145 VGND VPWR sky130_fd_sc_hd__tapvpwrvgnd_1
XPHY_134 VGND VPWR sky130_fd_sc_hd__tapvpwrvgnd_1
XPHY_123 VGND VPWR sky130_fd_sc_hd__tapvpwrvgnd_1
XFILLER_16_117 VGND VPWR sky130_fd_sc_hd__decap_12
XPHY_112 VGND VPWR sky130_fd_sc_hd__tapvpwrvgnd_1
XPHY_101 VGND VPWR sky130_fd_sc_hd__tapvpwrvgnd_1
XFILLER_30_197 VGND VPWR sky130_fd_sc_hd__fill_1
XFILLER_22_109 VGND VPWR sky130_fd_sc_hd__decap_3
XPHY_3 VGND VPWR sky130_fd_sc_hd__decap_3
XFILLER_7_41 VGND VPWR sky130_fd_sc_hd__decap_12
XFILLER_7_74 VGND VPWR sky130_fd_sc_hd__decap_4
XANTENNA_mem_right_ipin_4.sc_dff_compact_2_.sky130_fd_sc_hd__dfrbp_1_D mem_right_ipin_4.sc_dff_compact_1_.sky130_fd_sc_hd__dfrbp_1/Q
+ VGND VPWR sky130_fd_sc_hd__diode_2
XFILLER_21_153 VGND VPWR sky130_fd_sc_hd__decap_12
XFILLER_32_93 VGND VPWR sky130_fd_sc_hd__decap_8
XFILLER_5_105 VGND VPWR sky130_fd_sc_hd__fill_2
XFILLER_4_193 VGND VPWR sky130_fd_sc_hd__decap_4
XFILLER_13_62 VGND VPWR sky130_fd_sc_hd__decap_6
XFILLER_1_196 VGND VPWR sky130_fd_sc_hd__fill_2
XFILLER_18_18 VGND VPWR sky130_fd_sc_hd__decap_12
XANTENNA_mem_right_ipin_5.sc_dff_compact_0_.sky130_fd_sc_hd__dfrbp_1_D mem_right_ipin_4.sc_dff_compact_5_.sky130_fd_sc_hd__dfrbp_1/Q
+ VGND VPWR sky130_fd_sc_hd__diode_2
XFILLER_1_98 VGND VPWR sky130_fd_sc_hd__decap_12
X_23_ chany_bottom_in[4] chany_top_out[4] VGND VPWR sky130_fd_sc_hd__buf_2
XFILLER_29_28 VGND VPWR sky130_fd_sc_hd__decap_4
XFILLER_28_126 VGND VPWR sky130_fd_sc_hd__decap_4
XANTENNA_mem_right_ipin_4.sc_dff_compact_5_.sky130_fd_sc_hd__dfrbp_1_D mem_right_ipin_4.sc_dff_compact_4_.sky130_fd_sc_hd__dfrbp_1/Q
+ VGND VPWR sky130_fd_sc_hd__diode_2
XFILLER_33_195 VGND VPWR sky130_fd_sc_hd__decap_3
XFILLER_25_107 VGND VPWR sky130_fd_sc_hd__decap_8
XFILLER_25_3 VGND VPWR sky130_fd_sc_hd__decap_12
XFILLER_18_192 VGND VPWR sky130_fd_sc_hd__decap_6
X_06_ _06_/HI left_grid_pin_12_ VGND VPWR sky130_fd_sc_hd__conb_1
XPHY_168 VGND VPWR sky130_fd_sc_hd__tapvpwrvgnd_1
XPHY_157 VGND VPWR sky130_fd_sc_hd__tapvpwrvgnd_1
XPHY_146 VGND VPWR sky130_fd_sc_hd__tapvpwrvgnd_1
XPHY_135 VGND VPWR sky130_fd_sc_hd__tapvpwrvgnd_1
XFILLER_21_62 VGND VPWR sky130_fd_sc_hd__decap_12
XFILLER_21_51 VGND VPWR sky130_fd_sc_hd__decap_8
XPHY_124 VGND VPWR sky130_fd_sc_hd__tapvpwrvgnd_1
XFILLER_16_129 VGND VPWR sky130_fd_sc_hd__decap_4
XPHY_113 VGND VPWR sky130_fd_sc_hd__tapvpwrvgnd_1
XPHY_102 VGND VPWR sky130_fd_sc_hd__tapvpwrvgnd_1
XFILLER_30_154 VGND VPWR sky130_fd_sc_hd__fill_2
XFILLER_15_184 VGND VPWR sky130_fd_sc_hd__decap_12
XPHY_4 VGND VPWR sky130_fd_sc_hd__decap_3
XFILLER_7_53 VGND VPWR sky130_fd_sc_hd__decap_8
XFILLER_26_29 VGND VPWR sky130_fd_sc_hd__fill_2
XFILLER_21_165 VGND VPWR sky130_fd_sc_hd__decap_12
XANTENNA_clkbuf_1_1_0_prog_clk_A clkbuf_0_prog_clk/X VGND VPWR sky130_fd_sc_hd__diode_2
XFILLER_16_84 VGND VPWR sky130_fd_sc_hd__decap_8
XFILLER_16_40 VGND VPWR sky130_fd_sc_hd__fill_1
XFILLER_12_154 VGND VPWR sky130_fd_sc_hd__decap_12
XFILLER_8_136 VGND VPWR sky130_fd_sc_hd__fill_2
XFILLER_27_50 VGND VPWR sky130_fd_sc_hd__decap_8
XANTENNA_mem_right_ipin_5.sc_dff_compact_3_.sky130_fd_sc_hd__dfrbp_1_D mem_right_ipin_5.sc_dff_compact_2_.sky130_fd_sc_hd__dfrbp_1/Q
+ VGND VPWR sky130_fd_sc_hd__diode_2
XFILLER_4_32 VGND VPWR sky130_fd_sc_hd__decap_12
XFILLER_13_96 VGND VPWR sky130_fd_sc_hd__decap_12
XANTENNA_mem_right_ipin_7.sc_dff_compact_0_.sky130_fd_sc_hd__dfrbp_1_RESET_B pReset
+ VGND VPWR sky130_fd_sc_hd__diode_2
X_22_ chany_bottom_in[5] chany_top_out[5] VGND VPWR sky130_fd_sc_hd__buf_2
XFILLER_28_105 VGND VPWR sky130_fd_sc_hd__decap_12
Xmem_right_ipin_7.sc_dff_compact_1_.sky130_fd_sc_hd__dfrbp_1 mem_right_ipin_7.sc_dff_compact_0_.sky130_fd_sc_hd__dfrbp_1/Q
+ mem_right_ipin_7.sc_dff_compact_2_.sky130_fd_sc_hd__dfrbp_1/D mem_right_ipin_7.sc_dff_compact_1_.sky130_fd_sc_hd__dfrbp_1/Q_N
+ pReset clkbuf_2_1_0_prog_clk/X VGND VPWR sky130_fd_sc_hd__dfrbp_1
XFILLER_19_62 VGND VPWR sky130_fd_sc_hd__decap_4
XFILLER_19_51 VGND VPWR sky130_fd_sc_hd__fill_2
XANTENNA_mem_right_ipin_6.sc_dff_compact_1_.sky130_fd_sc_hd__dfrbp_1_D mem_right_ipin_6.sc_dff_compact_0_.sky130_fd_sc_hd__dfrbp_1/Q
+ VGND VPWR sky130_fd_sc_hd__diode_2
Xmem_right_ipin_4.sc_dff_compact_2_.sky130_fd_sc_hd__dfrbp_1 mem_right_ipin_4.sc_dff_compact_1_.sky130_fd_sc_hd__dfrbp_1/Q
+ mem_right_ipin_4.sc_dff_compact_2_.sky130_fd_sc_hd__dfrbp_1/Q mem_right_ipin_4.sc_dff_compact_2_.sky130_fd_sc_hd__dfrbp_1/Q_N
+ pReset clkbuf_2_1_0_prog_clk/X VGND VPWR sky130_fd_sc_hd__dfrbp_1
XFILLER_18_3 VGND VPWR sky130_fd_sc_hd__decap_6
X_05_ _05_/HI left_grid_pin_14_ VGND VPWR sky130_fd_sc_hd__conb_1
XPHY_169 VGND VPWR sky130_fd_sc_hd__tapvpwrvgnd_1
XPHY_158 VGND VPWR sky130_fd_sc_hd__tapvpwrvgnd_1
XPHY_147 VGND VPWR sky130_fd_sc_hd__tapvpwrvgnd_1
XFILLER_24_152 VGND VPWR sky130_fd_sc_hd__fill_1
XPHY_136 VGND VPWR sky130_fd_sc_hd__tapvpwrvgnd_1
XFILLER_21_74 VGND VPWR sky130_fd_sc_hd__decap_6
XPHY_125 VGND VPWR sky130_fd_sc_hd__tapvpwrvgnd_1
XPHY_114 VGND VPWR sky130_fd_sc_hd__tapvpwrvgnd_1
XPHY_103 VGND VPWR sky130_fd_sc_hd__tapvpwrvgnd_1
XFILLER_15_196 VGND VPWR sky130_fd_sc_hd__fill_2
XPHY_5 VGND VPWR sky130_fd_sc_hd__decap_3
XFILLER_21_177 VGND VPWR sky130_fd_sc_hd__decap_6
XFILLER_21_111 VGND VPWR sky130_fd_sc_hd__decap_8
Xmem_right_ipin_1.sc_dff_compact_3_.sky130_fd_sc_hd__dfrbp_1 mem_right_ipin_1.sc_dff_compact_3_.sky130_fd_sc_hd__dfrbp_1/D
+ mem_right_ipin_1.sc_dff_compact_3_.sky130_fd_sc_hd__dfrbp_1/Q mem_right_ipin_1.sc_dff_compact_3_.sky130_fd_sc_hd__dfrbp_1/Q_N
+ pReset clkbuf_2_2_0_prog_clk/X VGND VPWR sky130_fd_sc_hd__dfrbp_1
XFILLER_12_166 VGND VPWR sky130_fd_sc_hd__decap_12
XFILLER_27_62 VGND VPWR sky130_fd_sc_hd__decap_3
XFILLER_4_11 VGND VPWR sky130_fd_sc_hd__decap_12
XFILLER_4_44 VGND VPWR sky130_fd_sc_hd__decap_12
XANTENNA_mem_right_ipin_6.sc_dff_compact_4_.sky130_fd_sc_hd__dfrbp_1_D mem_right_ipin_6.sc_dff_compact_4_.sky130_fd_sc_hd__dfrbp_1/D
+ VGND VPWR sky130_fd_sc_hd__diode_2