* NGSPICE file created from cbx_1__1_.ext - technology: sky130A

* Black-box entry subcircuit for sky130_fd_sc_hd__decap_12 abstract view
.subckt sky130_fd_sc_hd__decap_12 VGND VPWR
.ends

* Black-box entry subcircuit for sky130_fd_sc_hd__dfrbp_1 abstract view
.subckt sky130_fd_sc_hd__dfrbp_1 D Q Q_N RESET_B CLK VGND VPWR
.ends

* Black-box entry subcircuit for sky130_fd_sc_hd__fill_2 abstract view
.subckt sky130_fd_sc_hd__fill_2 VGND VPWR
.ends

* Black-box entry subcircuit for sky130_fd_sc_hd__decap_8 abstract view
.subckt sky130_fd_sc_hd__decap_8 VGND VPWR
.ends

* Black-box entry subcircuit for sky130_fd_sc_hd__diode_2 abstract view
.subckt sky130_fd_sc_hd__diode_2 DIODE VGND VPWR
.ends

* Black-box entry subcircuit for sky130_fd_sc_hd__decap_4 abstract view
.subckt sky130_fd_sc_hd__decap_4 VGND VPWR
.ends

* Black-box entry subcircuit for sky130_fd_sc_hd__fill_1 abstract view
.subckt sky130_fd_sc_hd__fill_1 VGND VPWR
.ends

* Black-box entry subcircuit for sky130_fd_sc_hd__decap_6 abstract view
.subckt sky130_fd_sc_hd__decap_6 VGND VPWR
.ends

* Black-box entry subcircuit for sky130_fd_sc_hd__decap_3 abstract view
.subckt sky130_fd_sc_hd__decap_3 VGND VPWR
.ends

* Black-box entry subcircuit for sky130_fd_sc_hd__buf_2 abstract view
.subckt sky130_fd_sc_hd__buf_2 A X VGND VPWR
.ends

* Black-box entry subcircuit for sky130_fd_sc_hd__conb_1 abstract view
.subckt sky130_fd_sc_hd__conb_1 HI LO VGND VPWR
.ends

* Black-box entry subcircuit for sky130_fd_sc_hd__clkbuf_16 abstract view
.subckt sky130_fd_sc_hd__clkbuf_16 A X VGND VPWR
.ends

* Black-box entry subcircuit for sky130_fd_sc_hd__tapvpwrvgnd_1 abstract view
.subckt sky130_fd_sc_hd__tapvpwrvgnd_1 VGND VPWR
.ends

* Black-box entry subcircuit for sky130_fd_sc_hd__clkbuf_1 abstract view
.subckt sky130_fd_sc_hd__clkbuf_1 A X VGND VPWR
.ends

.subckt cbx_1__1_ chanx_out_7_ chanx_in_9_ chanx_in_5_ chanx_out_16_ top_grid_pin_6_
+ bottom_grid_pin_4_ ccff_tail chanx_in_17_ chanx_in_16_ chanx_in_10_ chanx_out_3_
+ chanx_in_3_ ccff_head chanx_in_7_ top_grid_pin_14_ chanx_out_10_ chanx_out_13_ chanx_in_2_
+ chanx_out_9_ chanx_in_14_ chanx_out_15_ chanx_in_11_ chanx_in_4_ chanx_out_17_ top_grid_pin_2_
+ chanx_out_4_ chanx_in_15_ pReset chanx_in_8_ chanx_in_1_ chanx_out_0_ chanx_out_1_
+ chanx_in_6_ chanx_in_12_ chanx_out_11_ chanx_out_6_ chanx_out_8_ prog_clk bottom_grid_pin_0_
+ bottom_grid_pin_8_ chanx_out_2_ chanx_in_13_ chanx_out_12_ chanx_in_0_ chanx_out_5_
+ chanx_out_14_
XFILLER_22_122 _04_/VGND _04_/VPWR sky130_fd_sc_hd__decap_12
Xmem_bottom_ipin_2.sc_dff_compact_5_.sky130_fd_sc_hd__dfrbp_1 mem_bottom_ipin_2.sc_dff_compact_5_.sky130_fd_sc_hd__dfrbp_1/D
+ mem_top_ipin_0.sc_dff_compact_0_.sky130_fd_sc_hd__dfrbp_1/D mem_bottom_ipin_2.sc_dff_compact_5_.sky130_fd_sc_hd__dfrbp_1/Q_N
+ pReset clkbuf_1_1_0_prog_clk/X _04_/VGND _04_/VPWR sky130_fd_sc_hd__dfrbp_1
XFILLER_3_34 _02_/VGND _02_/VPWR sky130_fd_sc_hd__fill_2
Xmem_top_ipin_0.sc_dff_compact_4_.sky130_fd_sc_hd__dfrbp_1 mem_top_ipin_0.sc_dff_compact_3_.sky130_fd_sc_hd__dfrbp_1/Q
+ mem_top_ipin_0.sc_dff_compact_4_.sky130_fd_sc_hd__dfrbp_1/Q mem_top_ipin_0.sc_dff_compact_4_.sky130_fd_sc_hd__dfrbp_1/Q_N
+ pReset clkbuf_1_1_0_prog_clk/X _15_/VGND _20_/VPWR sky130_fd_sc_hd__dfrbp_1
XFILLER_12_10 _13_/VGND _17_/VPWR sky130_fd_sc_hd__decap_12
XFILLER_12_32 _13_/VGND _17_/VPWR sky130_fd_sc_hd__fill_2
XFILLER_23_75 _04_/VGND PHY_47/VPWR sky130_fd_sc_hd__decap_12
Xmem_bottom_ipin_0.sc_dff_compact_0_.sky130_fd_sc_hd__dfrbp_1 ccff_head mem_bottom_ipin_0.sc_dff_compact_0_.sky130_fd_sc_hd__dfrbp_1/Q
+ mem_bottom_ipin_0.sc_dff_compact_0_.sky130_fd_sc_hd__dfrbp_1/Q_N pReset clkbuf_1_1_0_prog_clk/X
+ _02_/VGND _01_/VPWR sky130_fd_sc_hd__dfrbp_1
XFILLER_0_79 _01_/VGND _18_/VPWR sky130_fd_sc_hd__decap_8
XFILLER_9_33 _22_/VGND _20_/VPWR sky130_fd_sc_hd__fill_2
XFILLER_9_66 _22_/VGND _20_/VPWR sky130_fd_sc_hd__decap_12
XANTENNA_mem_top_ipin_0.sc_dff_compact_2_.sky130_fd_sc_hd__dfrbp_1_D mem_top_ipin_0.sc_dff_compact_1_.sky130_fd_sc_hd__dfrbp_1/Q
+ _13_/VGND PHY_29/VPWR sky130_fd_sc_hd__diode_2
XFILLER_20_32 _03_/VGND _08_/VPWR sky130_fd_sc_hd__decap_12
XFILLER_6_67 _11_/VGND PHY_13/VPWR sky130_fd_sc_hd__fill_2
XANTENNA_mem_top_ipin_0.sc_dff_compact_5_.sky130_fd_sc_hd__dfrbp_1_CLK clkbuf_1_1_0_prog_clk/X
+ _11_/VGND _11_/VPWR sky130_fd_sc_hd__diode_2
XFILLER_13_3 _13_/VGND PHY_29/VPWR sky130_fd_sc_hd__decap_12
XFILLER_22_134 _04_/VGND _04_/VPWR sky130_fd_sc_hd__decap_4
XFILLER_13_123 _13_/VGND PHY_29/VPWR sky130_fd_sc_hd__decap_12
XFILLER_3_46 _02_/VGND _02_/VPWR sky130_fd_sc_hd__fill_2
XANTENNA_mem_top_ipin_1.sc_dff_compact_0_.sky130_fd_sc_hd__dfrbp_1_D mem_top_ipin_0.sc_dff_compact_5_.sky130_fd_sc_hd__dfrbp_1/Q
+ _12_/VGND PHY_13/VPWR sky130_fd_sc_hd__diode_2
XFILLER_12_22 _13_/VGND _17_/VPWR sky130_fd_sc_hd__decap_8
XFILLER_12_99 _13_/VGND _17_/VPWR sky130_fd_sc_hd__fill_1
XANTENNA_mem_top_ipin_0.sc_dff_compact_5_.sky130_fd_sc_hd__dfrbp_1_D mem_top_ipin_0.sc_dff_compact_4_.sky130_fd_sc_hd__dfrbp_1/Q
+ _11_/VGND _11_/VPWR sky130_fd_sc_hd__diode_2
XFILLER_23_32 _04_/VGND PHY_47/VPWR sky130_fd_sc_hd__decap_12
XFILLER_23_87 _04_/VGND PHY_47/VPWR sky130_fd_sc_hd__decap_6
XFILLER_9_23 _22_/VGND _20_/VPWR sky130_fd_sc_hd__fill_2
XFILLER_9_78 _22_/VGND _20_/VPWR sky130_fd_sc_hd__decap_12
XANTENNA_mem_bottom_ipin_1.sc_dff_compact_1_.sky130_fd_sc_hd__dfrbp_1_RESET_B pReset
+ _13_/VGND PHY_29/VPWR sky130_fd_sc_hd__diode_2
XANTENNA_mem_bottom_ipin_1.sc_dff_compact_0_.sky130_fd_sc_hd__dfrbp_1_CLK clkbuf_1_0_0_prog_clk/X
+ _15_/VGND _17_/VPWR sky130_fd_sc_hd__diode_2
XFILLER_18_32 _08_/VGND _09_/VPWR sky130_fd_sc_hd__decap_12
XANTENNA_mem_bottom_ipin_2.sc_dff_compact_1_.sky130_fd_sc_hd__dfrbp_1_CLK clkbuf_1_0_0_prog_clk/X
+ PHY_35/VGND _09_/VPWR sky130_fd_sc_hd__diode_2
XFILLER_20_44 _03_/VGND _08_/VPWR sky130_fd_sc_hd__decap_12
XFILLER_15_66 _06_/VGND _06_/VPWR sky130_fd_sc_hd__decap_12
XFILLER_15_55 _06_/VGND _06_/VPWR sky130_fd_sc_hd__fill_2
XFILLER_13_135 _13_/VGND PHY_29/VPWR sky130_fd_sc_hd__decap_4
XFILLER_13_102 _13_/VGND PHY_29/VPWR sky130_fd_sc_hd__fill_2
XFILLER_9_106 _22_/VGND _20_/VPWR sky130_fd_sc_hd__fill_2
XFILLER_12_56 _13_/VGND _17_/VPWR sky130_fd_sc_hd__decap_3
XFILLER_5_120 _12_/VGND PHY_13/VPWR sky130_fd_sc_hd__fill_2
XANTENNA_mem_top_ipin_2.sc_dff_compact_1_.sky130_fd_sc_hd__dfrbp_1_D mem_top_ipin_2.sc_dff_compact_1_.sky130_fd_sc_hd__dfrbp_1/D
+ _01_/VGND _01_/VPWR sky130_fd_sc_hd__diode_2
XFILLER_23_44 _04_/VGND PHY_47/VPWR sky130_fd_sc_hd__decap_12
XFILLER_3_3 _02_/VGND _02_/VPWR sky130_fd_sc_hd__decap_12
XFILLER_0_15 _01_/VGND _18_/VPWR sky130_fd_sc_hd__decap_12
XFILLER_9_57 _22_/VGND _20_/VPWR sky130_fd_sc_hd__decap_4
XFILLER_18_44 _08_/VGND _09_/VPWR sky130_fd_sc_hd__decap_12
XFILLER_18_11 _08_/VGND _09_/VPWR sky130_fd_sc_hd__fill_1
XFILLER_20_56 _03_/VGND _08_/VPWR sky130_fd_sc_hd__decap_4
XANTENNA_clkbuf_1_0_0_prog_clk_A clkbuf_0_prog_clk/X _13_/VGND _17_/VPWR sky130_fd_sc_hd__diode_2
XFILLER_15_78 _06_/VGND _06_/VPWR sky130_fd_sc_hd__decap_12
XFILLER_3_15 _02_/VGND _02_/VPWR sky130_fd_sc_hd__decap_12
XANTENNA_mem_bottom_ipin_0.sc_dff_compact_1_.sky130_fd_sc_hd__dfrbp_1_RESET_B pReset
+ _02_/VGND _02_/VPWR sky130_fd_sc_hd__diode_2
XANTENNA_mem_bottom_ipin_2.sc_dff_compact_2_.sky130_fd_sc_hd__dfrbp_1_RESET_B pReset
+ _08_/VGND _08_/VPWR sky130_fd_sc_hd__diode_2
XFILLER_23_56 _04_/VGND PHY_47/VPWR sky130_fd_sc_hd__decap_6
XFILLER_0_49 _01_/VGND _18_/VPWR sky130_fd_sc_hd__fill_2
XFILLER_0_27 _01_/VGND _18_/VPWR sky130_fd_sc_hd__decap_4
XANTENNA__12__A chanx_in_4_ _02_/VGND _02_/VPWR sky130_fd_sc_hd__diode_2
XFILLER_18_56 _08_/VGND _09_/VPWR sky130_fd_sc_hd__fill_1
XANTENNA__07__A chanx_in_16_ _01_/VGND _01_/VPWR sky130_fd_sc_hd__diode_2
XFILLER_15_9 _06_/VGND _06_/VPWR sky130_fd_sc_hd__fill_1
XFILLER_6_15 _11_/VGND PHY_13/VPWR sky130_fd_sc_hd__decap_12
XFILLER_10_90 _15_/VGND _20_/VPWR sky130_fd_sc_hd__fill_2
XANTENNA__20__A chanx_in_11_ _22_/VGND _20_/VPWR sky130_fd_sc_hd__diode_2
XFILLER_11_3 _15_/VGND _17_/VPWR sky130_fd_sc_hd__decap_3
XFILLER_3_27 _02_/VGND _02_/VPWR sky130_fd_sc_hd__decap_3
XFILLER_3_38 _02_/VGND _02_/VPWR sky130_fd_sc_hd__decap_4
XANTENNA__15__A chanx_in_7_ _15_/VGND _17_/VPWR sky130_fd_sc_hd__diode_2
XFILLER_4_70 _12_/VGND _02_/VPWR sky130_fd_sc_hd__fill_2
Xmem_top_ipin_1.sc_dff_compact_1_.sky130_fd_sc_hd__dfrbp_1 mem_top_ipin_1.sc_dff_compact_0_.sky130_fd_sc_hd__dfrbp_1/Q
+ mem_top_ipin_1.sc_dff_compact_1_.sky130_fd_sc_hd__dfrbp_1/Q mem_top_ipin_1.sc_dff_compact_1_.sky130_fd_sc_hd__dfrbp_1/Q_N
+ pReset clkbuf_1_1_0_prog_clk/X _12_/VGND _02_/VPWR sky130_fd_sc_hd__dfrbp_1
XFILLER_9_15 _22_/VGND _20_/VPWR sky130_fd_sc_hd__decap_8
XFILLER_9_37 _22_/VGND _20_/VPWR sky130_fd_sc_hd__decap_12
Xmem_bottom_ipin_0.sc_dff_compact_3_.sky130_fd_sc_hd__dfrbp_1 mem_bottom_ipin_0.sc_dff_compact_3_.sky130_fd_sc_hd__dfrbp_1/D
+ mem_bottom_ipin_0.sc_dff_compact_3_.sky130_fd_sc_hd__dfrbp_1/Q mem_bottom_ipin_0.sc_dff_compact_3_.sky130_fd_sc_hd__dfrbp_1/Q_N
+ pReset clkbuf_1_0_0_prog_clk/X _11_/VGND _11_/VPWR sky130_fd_sc_hd__dfrbp_1
XANTENNA__23__A chanx_in_14_ _01_/VGND _01_/VPWR sky130_fd_sc_hd__diode_2
XANTENNA__18__A chanx_in_0_ _01_/VGND _18_/VPWR sky130_fd_sc_hd__diode_2
XFILLER_19_121 _08_/VGND _08_/VPWR sky130_fd_sc_hd__fill_1
XFILLER_6_27 _11_/VGND PHY_13/VPWR sky130_fd_sc_hd__decap_4
XFILLER_15_14 _06_/VGND _06_/VPWR sky130_fd_sc_hd__fill_2
XFILLER_22_138 _04_/VGND _04_/VPWR sky130_fd_sc_hd__fill_1
XFILLER_5_112 _12_/VGND PHY_13/VPWR sky130_fd_sc_hd__decap_8
XFILLER_5_123 _12_/VGND PHY_13/VPWR sky130_fd_sc_hd__decap_12
XFILLER_4_93 _12_/VGND _02_/VPWR sky130_fd_sc_hd__decap_8
XFILLER_9_27 _22_/VGND _20_/VPWR sky130_fd_sc_hd__fill_2
XFILLER_9_49 _22_/VGND _20_/VPWR sky130_fd_sc_hd__fill_2
XANTENNA_mem_top_ipin_0.sc_dff_compact_4_.sky130_fd_sc_hd__dfrbp_1_CLK clkbuf_1_1_0_prog_clk/X
+ _22_/VGND _20_/VPWR sky130_fd_sc_hd__diode_2
XFILLER_1_3 _01_/VGND _01_/VPWR sky130_fd_sc_hd__decap_3
XFILLER_1_72 _01_/VGND _01_/VPWR sky130_fd_sc_hd__decap_4
XFILLER_20_15 _03_/VGND _08_/VPWR sky130_fd_sc_hd__decap_12
XFILLER_19_90 _08_/VGND _08_/VPWR sky130_fd_sc_hd__decap_3
XANTENNA_mem_bottom_ipin_0.sc_dff_compact_0_.sky130_fd_sc_hd__dfrbp_1_D ccff_head
+ _01_/VGND _01_/VPWR sky130_fd_sc_hd__diode_2
XFILLER_15_59 _06_/VGND _06_/VPWR sky130_fd_sc_hd__fill_2
XFILLER_16_136 PHY_35/VGND _06_/VPWR sky130_fd_sc_hd__decap_3
XPHY_0 _01_/VGND _18_/VPWR sky130_fd_sc_hd__decap_3
XFILLER_13_106 _13_/VGND PHY_29/VPWR sky130_fd_sc_hd__fill_2
XANTENNA_mem_bottom_ipin_2.sc_dff_compact_0_.sky130_fd_sc_hd__dfrbp_1_CLK clkbuf_1_0_0_prog_clk/X
+ _06_/VGND _06_/VPWR sky130_fd_sc_hd__diode_2
XFILLER_12_38 _13_/VGND _17_/VPWR sky130_fd_sc_hd__decap_12
XFILLER_5_135 _12_/VGND PHY_13/VPWR sky130_fd_sc_hd__decap_4
XFILLER_23_15 _04_/VGND PHY_47/VPWR sky130_fd_sc_hd__decap_12
XFILLER_13_70 _13_/VGND PHY_29/VPWR sky130_fd_sc_hd__decap_12
XFILLER_2_138 _02_/VGND _01_/VPWR sky130_fd_sc_hd__fill_1
XANTENNA_mem_bottom_ipin_0.sc_dff_compact_3_.sky130_fd_sc_hd__dfrbp_1_D mem_bottom_ipin_0.sc_dff_compact_3_.sky130_fd_sc_hd__dfrbp_1/D
+ _11_/VGND _11_/VPWR sky130_fd_sc_hd__diode_2
Xmem_bottom_ipin_2.sc_dff_compact_1_.sky130_fd_sc_hd__dfrbp_1 mem_bottom_ipin_2.sc_dff_compact_1_.sky130_fd_sc_hd__dfrbp_1/D
+ mem_bottom_ipin_2.sc_dff_compact_2_.sky130_fd_sc_hd__dfrbp_1/D mem_bottom_ipin_2.sc_dff_compact_1_.sky130_fd_sc_hd__dfrbp_1/Q_N
+ pReset clkbuf_1_0_0_prog_clk/X _08_/VGND _09_/VPWR sky130_fd_sc_hd__dfrbp_1
Xmem_top_ipin_0.sc_dff_compact_0_.sky130_fd_sc_hd__dfrbp_1 mem_top_ipin_0.sc_dff_compact_0_.sky130_fd_sc_hd__dfrbp_1/D
+ mem_top_ipin_0.sc_dff_compact_0_.sky130_fd_sc_hd__dfrbp_1/Q mem_top_ipin_0.sc_dff_compact_0_.sky130_fd_sc_hd__dfrbp_1/Q_N
+ pReset clkbuf_1_1_0_prog_clk/X _08_/VGND _09_/VPWR sky130_fd_sc_hd__dfrbp_1
XFILLER_20_27 _03_/VGND _08_/VPWR sky130_fd_sc_hd__decap_4
XFILLER_1_62 _01_/VGND _01_/VPWR sky130_fd_sc_hd__decap_3
XFILLER_1_40 _01_/VGND _01_/VPWR sky130_fd_sc_hd__fill_1
XFILLER_19_123 _08_/VGND _08_/VPWR sky130_fd_sc_hd__decap_12
XFILLER_10_93 _15_/VGND _20_/VPWR sky130_fd_sc_hd__decap_3
X_09_ chanx_in_1_ chanx_out_1_ _08_/VGND _09_/VPWR sky130_fd_sc_hd__buf_2
XANTENNA_mem_bottom_ipin_0.sc_dff_compact_2_.sky130_fd_sc_hd__dfrbp_1_RESET_B pReset
+ _12_/VGND _02_/VPWR sky130_fd_sc_hd__diode_2
XANTENNA_mem_bottom_ipin_2.sc_dff_compact_3_.sky130_fd_sc_hd__dfrbp_1_RESET_B pReset
+ _03_/VGND _04_/VPWR sky130_fd_sc_hd__diode_2
XPHY_1 _01_/VGND _18_/VPWR sky130_fd_sc_hd__decap_3
XANTENNA_mem_bottom_ipin_1.sc_dff_compact_1_.sky130_fd_sc_hd__dfrbp_1_D mem_bottom_ipin_1.sc_dff_compact_0_.sky130_fd_sc_hd__dfrbp_1/Q
+ _13_/VGND PHY_29/VPWR sky130_fd_sc_hd__diode_2
XFILLER_16_81 PHY_35/VGND _06_/VPWR sky130_fd_sc_hd__decap_8
XFILLER_4_40 _12_/VGND _02_/VPWR sky130_fd_sc_hd__fill_2
XFILLER_23_27 _04_/VGND PHY_47/VPWR sky130_fd_sc_hd__decap_4
XFILLER_13_82 _13_/VGND PHY_29/VPWR sky130_fd_sc_hd__decap_12
XFILLER_18_16 _08_/VGND _09_/VPWR sky130_fd_sc_hd__decap_12
XFILLER_1_85 _01_/VGND _01_/VPWR sky130_fd_sc_hd__fill_2
XFILLER_10_50 _15_/VGND _20_/VPWR sky130_fd_sc_hd__decap_4
XFILLER_19_135 _08_/VGND _08_/VPWR sky130_fd_sc_hd__decap_4
XFILLER_19_70 _08_/VGND _08_/VPWR sky130_fd_sc_hd__decap_12
X_08_ chanx_in_17_ chanx_out_17_ _08_/VGND _08_/VPWR sky130_fd_sc_hd__buf_2
XFILLER_21_93 _03_/VGND _04_/VPWR sky130_fd_sc_hd__decap_6
XPHY_2 _01_/VGND _01_/VPWR sky130_fd_sc_hd__decap_3
XFILLER_7_51 _11_/VGND _11_/VPWR sky130_fd_sc_hd__fill_2
XFILLER_7_62 _11_/VGND _11_/VPWR sky130_fd_sc_hd__decap_3
XFILLER_16_93 PHY_35/VGND _06_/VPWR sky130_fd_sc_hd__decap_12
XANTENNA_mem_bottom_ipin_2.sc_dff_compact_2_.sky130_fd_sc_hd__dfrbp_1_D mem_bottom_ipin_2.sc_dff_compact_2_.sky130_fd_sc_hd__dfrbp_1/D
+ _08_/VGND _08_/VPWR sky130_fd_sc_hd__diode_2
XFILLER_5_104 _12_/VGND PHY_13/VPWR sky130_fd_sc_hd__fill_2
XFILLER_4_74 _12_/VGND _02_/VPWR sky130_fd_sc_hd__decap_12
XFILLER_2_118 _02_/VGND _01_/VPWR sky130_fd_sc_hd__decap_12
XFILLER_13_94 _13_/VGND PHY_29/VPWR sky130_fd_sc_hd__decap_6
XFILLER_18_28 _08_/VGND _09_/VPWR sky130_fd_sc_hd__decap_3
XFILLER_1_53 _01_/VGND _01_/VPWR sky130_fd_sc_hd__decap_4
XFILLER_19_103 _08_/VGND _08_/VPWR sky130_fd_sc_hd__decap_12
XFILLER_19_82 _08_/VGND _08_/VPWR sky130_fd_sc_hd__decap_8
Xmem_bottom_ipin_1.sc_dff_compact_0_.sky130_fd_sc_hd__dfrbp_1 mem_bottom_ipin_1.sc_dff_compact_0_.sky130_fd_sc_hd__dfrbp_1/D
+ mem_bottom_ipin_1.sc_dff_compact_0_.sky130_fd_sc_hd__dfrbp_1/Q mem_bottom_ipin_1.sc_dff_compact_0_.sky130_fd_sc_hd__dfrbp_1/Q_N
+ pReset clkbuf_1_0_0_prog_clk/X _13_/VGND _17_/VPWR sky130_fd_sc_hd__dfrbp_1
XANTENNA_mem_bottom_ipin_2.sc_dff_compact_5_.sky130_fd_sc_hd__dfrbp_1_D mem_bottom_ipin_2.sc_dff_compact_5_.sky130_fd_sc_hd__dfrbp_1/D
+ _03_/VGND _04_/VPWR sky130_fd_sc_hd__diode_2
XFILLER_15_18 _06_/VGND _06_/VPWR sky130_fd_sc_hd__decap_12
X_07_ chanx_in_16_ chanx_out_16_ _02_/VGND _01_/VPWR sky130_fd_sc_hd__buf_2
XFILLER_16_128 PHY_35/VGND _06_/VPWR sky130_fd_sc_hd__decap_8
XFILLER_11_8 _15_/VGND _17_/VPWR sky130_fd_sc_hd__decap_12
XPHY_3 _01_/VGND _01_/VPWR sky130_fd_sc_hd__decap_3
XFILLER_8_124 _22_/VGND _11_/VPWR sky130_fd_sc_hd__decap_12
XFILLER_4_86 _12_/VGND _02_/VPWR sky130_fd_sc_hd__decap_6
XFILLER_13_51 _13_/VGND PHY_29/VPWR sky130_fd_sc_hd__decap_6
XFILLER_13_62 _13_/VGND PHY_29/VPWR sky130_fd_sc_hd__fill_2
XANTENNA_mem_bottom_ipin_0.sc_dff_compact_5_.sky130_fd_sc_hd__dfrbp_1_CLK clkbuf_1_0_0_prog_clk/X
+ _22_/VGND _20_/VPWR sky130_fd_sc_hd__diode_2
X_23_ chanx_in_14_ chanx_out_14_ _02_/VGND _01_/VPWR sky130_fd_sc_hd__buf_2
XFILLER_19_115 _08_/VGND _08_/VPWR sky130_fd_sc_hd__decap_6
X_06_ chanx_in_15_ chanx_out_15_ _06_/VGND _06_/VPWR sky130_fd_sc_hd__buf_2
XFILLER_21_62 _03_/VGND _04_/VPWR sky130_fd_sc_hd__decap_4
XPHY_4 _02_/VGND _01_/VPWR sky130_fd_sc_hd__decap_3
XFILLER_7_31 _11_/VGND _11_/VPWR sky130_fd_sc_hd__decap_12
XFILLER_21_121 _03_/VGND _04_/VPWR sky130_fd_sc_hd__fill_1
XANTENNA_clkbuf_1_1_0_prog_clk_A clkbuf_0_prog_clk/X _15_/VGND _17_/VPWR sky130_fd_sc_hd__diode_2
XFILLER_8_136 _22_/VGND _11_/VPWR sky130_fd_sc_hd__decap_3
XANTENNA_mem_top_ipin_0.sc_dff_compact_3_.sky130_fd_sc_hd__dfrbp_1_CLK clkbuf_1_1_0_prog_clk/X
+ _15_/VGND _20_/VPWR sky130_fd_sc_hd__diode_2
XFILLER_4_32 _12_/VGND _02_/VPWR sky130_fd_sc_hd__decap_8
XANTENNA_mem_bottom_ipin_0.sc_dff_compact_3_.sky130_fd_sc_hd__dfrbp_1_RESET_B pReset
+ _11_/VGND PHY_13/VPWR sky130_fd_sc_hd__diode_2
XFILLER_1_8 _01_/VGND _01_/VPWR sky130_fd_sc_hd__fill_2
XANTENNA_mem_bottom_ipin_2.sc_dff_compact_4_.sky130_fd_sc_hd__dfrbp_1_RESET_B pReset
+ _08_/VGND _08_/VPWR sky130_fd_sc_hd__diode_2
XFILLER_1_22 _01_/VGND _01_/VPWR sky130_fd_sc_hd__decap_12
X_22_ chanx_in_13_ chanx_out_13_ _22_/VGND _20_/VPWR sky130_fd_sc_hd__buf_2
Xmem_bottom_ipin_2.sc_dff_compact_4_.sky130_fd_sc_hd__dfrbp_1 mem_bottom_ipin_2.sc_dff_compact_3_.sky130_fd_sc_hd__dfrbp_1/Q
+ mem_bottom_ipin_2.sc_dff_compact_5_.sky130_fd_sc_hd__dfrbp_1/D mem_bottom_ipin_2.sc_dff_compact_4_.sky130_fd_sc_hd__dfrbp_1/Q_N
+ pReset clkbuf_1_1_0_prog_clk/X _03_/VGND _08_/VPWR sky130_fd_sc_hd__dfrbp_1
Xmem_top_ipin_0.sc_dff_compact_3_.sky130_fd_sc_hd__dfrbp_1 mem_top_ipin_0.sc_dff_compact_2_.sky130_fd_sc_hd__dfrbp_1/Q
+ mem_top_ipin_0.sc_dff_compact_3_.sky130_fd_sc_hd__dfrbp_1/Q mem_top_ipin_0.sc_dff_compact_3_.sky130_fd_sc_hd__dfrbp_1/Q_N
+ pReset clkbuf_1_1_0_prog_clk/X _13_/VGND _17_/VPWR sky130_fd_sc_hd__dfrbp_1
XFILLER_19_95 _08_/VGND _08_/VPWR sky130_fd_sc_hd__fill_2
XFILLER_19_62 _08_/VGND _08_/VPWR sky130_fd_sc_hd__fill_2
XFILLER_19_40 _08_/VGND _08_/VPWR sky130_fd_sc_hd__decap_12
X_05_ _05_/HI top_grid_pin_6_ _03_/VGND _04_/VPWR sky130_fd_sc_hd__conb_1
XFILLER_18_3 _08_/VGND _09_/VPWR sky130_fd_sc_hd__decap_8
XPHY_5 _02_/VGND _01_/VPWR sky130_fd_sc_hd__decap_3
XFILLER_7_43 _11_/VGND _11_/VPWR sky130_fd_sc_hd__decap_6
XFILLER_4_66 _12_/VGND _02_/VPWR sky130_fd_sc_hd__fill_2
XANTENNA_mem_top_ipin_2.sc_dff_compact_0_.sky130_fd_sc_hd__dfrbp_1_RESET_B pReset
+ _01_/VGND _01_/VPWR sky130_fd_sc_hd__diode_2
X_21_ chanx_in_12_ chanx_out_12_ _01_/VGND _01_/VPWR sky130_fd_sc_hd__buf_2
XFILLER_1_12 _01_/VGND _01_/VPWR sky130_fd_sc_hd__fill_2
XFILLER_1_89 _01_/VGND _01_/VPWR sky130_fd_sc_hd__fill_2
XFILLER_1_45 _01_/VGND _01_/VPWR sky130_fd_sc_hd__fill_2
XFILLER_1_34 _01_/VGND _01_/VPWR sky130_fd_sc_hd__decap_6
XFILLER_19_52 _08_/VGND _08_/VPWR sky130_fd_sc_hd__decap_4
XFILLER_10_32 _15_/VGND _20_/VPWR sky130_fd_sc_hd__fill_2
XFILLER_10_54 _15_/VGND _20_/VPWR sky130_fd_sc_hd__fill_1
XFILLER_10_98 _15_/VGND _20_/VPWR sky130_fd_sc_hd__fill_2
X_04_ _04_/HI top_grid_pin_2_ _04_/VGND _04_/VPWR sky130_fd_sc_hd__conb_1
XPHY_6 _02_/VGND _02_/VPWR sky130_fd_sc_hd__decap_3
XFILLER_7_55 _11_/VGND _11_/VPWR sky130_fd_sc_hd__fill_2
XFILLER_7_88 _11_/VGND _11_/VPWR sky130_fd_sc_hd__decap_12
XFILLER_21_123 _03_/VGND _04_/VPWR sky130_fd_sc_hd__decap_12
XFILLER_21_101 _03_/VGND _04_/VPWR sky130_fd_sc_hd__fill_2
XFILLER_12_123 _13_/VGND _17_/VPWR sky130_fd_sc_hd__decap_12
XFILLER_5_108 _12_/VGND PHY_13/VPWR sky130_fd_sc_hd__fill_2
XANTENNA_mem_top_ipin_0.sc_dff_compact_1_.sky130_fd_sc_hd__dfrbp_1_D mem_top_ipin_0.sc_dff_compact_0_.sky130_fd_sc_hd__dfrbp_1/Q
+ _06_/VGND _06_/VPWR sky130_fd_sc_hd__diode_2
XFILLER_8_3 _22_/VGND _11_/VPWR sky130_fd_sc_hd__decap_12
XFILLER_1_79 _01_/VGND _01_/VPWR sky130_fd_sc_hd__decap_4
XFILLER_1_68 _01_/VGND _01_/VPWR sky130_fd_sc_hd__fill_2
X_20_ chanx_in_11_ chanx_out_11_ _15_/VGND _20_/VPWR sky130_fd_sc_hd__buf_2
Xclkbuf_0_prog_clk prog_clk clkbuf_0_prog_clk/X _15_/VGND _17_/VPWR sky130_fd_sc_hd__clkbuf_16
X_03_ _03_/HI top_grid_pin_14_ _03_/VGND _04_/VPWR sky130_fd_sc_hd__conb_1
Xmem_top_ipin_2.sc_dff_compact_1_.sky130_fd_sc_hd__dfrbp_1 mem_top_ipin_2.sc_dff_compact_1_.sky130_fd_sc_hd__dfrbp_1/D
+ ccff_tail mem_top_ipin_2.sc_dff_compact_1_.sky130_fd_sc_hd__dfrbp_1/Q_N pReset clkbuf_1_0_0_prog_clk/X
+ _02_/VGND _01_/VPWR sky130_fd_sc_hd__dfrbp_1
XFILLER_21_21 _03_/VGND _04_/VPWR sky130_fd_sc_hd__decap_12
XFILLER_21_10 _03_/VGND _04_/VPWR sky130_fd_sc_hd__decap_8
XFILLER_15_121 _06_/VGND _06_/VPWR sky130_fd_sc_hd__fill_1
XPHY_7 _02_/VGND _02_/VPWR sky130_fd_sc_hd__decap_3
XFILLER_23_3 _04_/VGND PHY_47/VPWR sky130_fd_sc_hd__decap_12
XFILLER_21_135 _03_/VGND _04_/VPWR sky130_fd_sc_hd__decap_4
XFILLER_16_32 PHY_35/VGND _06_/VPWR sky130_fd_sc_hd__decap_12
XANTENNA_mem_top_ipin_0.sc_dff_compact_4_.sky130_fd_sc_hd__dfrbp_1_D mem_top_ipin_0.sc_dff_compact_3_.sky130_fd_sc_hd__dfrbp_1/Q
+ _22_/VGND _20_/VPWR sky130_fd_sc_hd__diode_2
XFILLER_12_135 _13_/VGND _17_/VPWR sky130_fd_sc_hd__decap_4
XFILLER_4_46 _12_/VGND _02_/VPWR sky130_fd_sc_hd__decap_12
XANTENNA_mem_top_ipin_1.sc_dff_compact_0_.sky130_fd_sc_hd__dfrbp_1_RESET_B pReset
+ _12_/VGND PHY_13/VPWR sky130_fd_sc_hd__diode_2
XFILLER_1_123 _01_/VGND _01_/VPWR sky130_fd_sc_hd__decap_12
XFILLER_13_66 _13_/VGND PHY_29/VPWR sky130_fd_sc_hd__fill_2
XFILLER_10_78 _15_/VGND _20_/VPWR sky130_fd_sc_hd__decap_12
X_02_ _02_/HI bottom_grid_pin_0_ _02_/VGND _02_/VPWR sky130_fd_sc_hd__conb_1
XFILLER_21_33 _03_/VGND _04_/VPWR sky130_fd_sc_hd__decap_12
XFILLER_2_90 _02_/VGND _01_/VPWR sky130_fd_sc_hd__fill_2
XFILLER_16_3 PHY_35/VGND _06_/VPWR sky130_fd_sc_hd__decap_12
XFILLER_15_111 _06_/VGND _06_/VPWR sky130_fd_sc_hd__fill_2
XPHY_8 _12_/VGND _02_/VPWR sky130_fd_sc_hd__decap_3
XFILLER_16_44 PHY_35/VGND _06_/VPWR sky130_fd_sc_hd__decap_12
XANTENNA_mem_top_ipin_2.sc_dff_compact_0_.sky130_fd_sc_hd__dfrbp_1_D mem_top_ipin_1.sc_dff_compact_1_.sky130_fd_sc_hd__dfrbp_1/Q
+ _01_/VGND _18_/VPWR sky130_fd_sc_hd__diode_2
XANTENNA_mem_bottom_ipin_0.sc_dff_compact_4_.sky130_fd_sc_hd__dfrbp_1_CLK clkbuf_1_0_0_prog_clk/X
+ _11_/VGND PHY_13/VPWR sky130_fd_sc_hd__diode_2
XANTENNA_mem_bottom_ipin_0.sc_dff_compact_4_.sky130_fd_sc_hd__dfrbp_1_RESET_B pReset
+ _11_/VGND _11_/VPWR sky130_fd_sc_hd__diode_2
XANTENNA_mem_bottom_ipin_2.sc_dff_compact_5_.sky130_fd_sc_hd__dfrbp_1_RESET_B pReset
+ _03_/VGND _04_/VPWR sky130_fd_sc_hd__diode_2
XFILLER_4_58 _12_/VGND _02_/VPWR sky130_fd_sc_hd__decap_6
XFILLER_1_135 _01_/VGND _01_/VPWR sky130_fd_sc_hd__decap_4
XFILLER_1_59 _01_/VGND _01_/VPWR sky130_fd_sc_hd__fill_2
XFILLER_19_99 _08_/VGND _08_/VPWR sky130_fd_sc_hd__fill_2
XFILLER_19_66 _08_/VGND _08_/VPWR sky130_fd_sc_hd__fill_2
XANTENNA_mem_top_ipin_0.sc_dff_compact_2_.sky130_fd_sc_hd__dfrbp_1_CLK clkbuf_1_1_0_prog_clk/X
+ _13_/VGND PHY_29/VPWR sky130_fd_sc_hd__diode_2
XFILLER_18_131 _08_/VGND _09_/VPWR sky130_fd_sc_hd__decap_8
X_01_ _01_/HI bottom_grid_pin_4_ _01_/VGND _01_/VPWR sky130_fd_sc_hd__conb_1
XFILLER_21_45 _03_/VGND _04_/VPWR sky130_fd_sc_hd__decap_12
XANTENNA__10__A chanx_in_2_ _02_/VGND _02_/VPWR sky130_fd_sc_hd__diode_2
XFILLER_15_123 _06_/VGND _06_/VPWR sky130_fd_sc_hd__decap_12
XPHY_9 _12_/VGND _02_/VPWR sky130_fd_sc_hd__decap_3
Xmem_top_ipin_1.sc_dff_compact_0_.sky130_fd_sc_hd__dfrbp_1 mem_top_ipin_0.sc_dff_compact_5_.sky130_fd_sc_hd__dfrbp_1/Q
+ mem_top_ipin_1.sc_dff_compact_0_.sky130_fd_sc_hd__dfrbp_1/Q mem_top_ipin_1.sc_dff_compact_0_.sky130_fd_sc_hd__dfrbp_1/Q_N
+ pReset clkbuf_1_1_0_prog_clk/X _11_/VGND PHY_13/VPWR sky130_fd_sc_hd__dfrbp_1
XANTENNA_mem_top_ipin_0.sc_dff_compact_0_.sky130_fd_sc_hd__dfrbp_1_RESET_B pReset
+ PHY_35/VGND _09_/VPWR sky130_fd_sc_hd__diode_2
XFILLER_16_89 PHY_35/VGND _06_/VPWR sky130_fd_sc_hd__decap_3
XFILLER_16_56 PHY_35/VGND _06_/VPWR sky130_fd_sc_hd__fill_2
Xmem_bottom_ipin_0.sc_dff_compact_2_.sky130_fd_sc_hd__dfrbp_1 mem_bottom_ipin_0.sc_dff_compact_1_.sky130_fd_sc_hd__dfrbp_1/Q
+ mem_bottom_ipin_0.sc_dff_compact_3_.sky130_fd_sc_hd__dfrbp_1/D mem_bottom_ipin_0.sc_dff_compact_2_.sky130_fd_sc_hd__dfrbp_1/Q_N
+ pReset clkbuf_1_0_0_prog_clk/X _12_/VGND PHY_13/VPWR sky130_fd_sc_hd__dfrbp_1
XANTENNA_mem_top_ipin_2.sc_dff_compact_1_.sky130_fd_sc_hd__dfrbp_1_RESET_B pReset
+ _01_/VGND _01_/VPWR sky130_fd_sc_hd__diode_2
XFILLER_4_15 _12_/VGND _02_/VPWR sky130_fd_sc_hd__decap_12
XFILLER_1_114 _01_/VGND _01_/VPWR sky130_fd_sc_hd__decap_8
XFILLER_1_49 _01_/VGND _01_/VPWR sky130_fd_sc_hd__fill_2
XFILLER_6_3 _11_/VGND PHY_13/VPWR sky130_fd_sc_hd__decap_12
XANTENNA__13__A chanx_in_5_ _15_/VGND _17_/VPWR sky130_fd_sc_hd__diode_2
XFILLER_19_56 _08_/VGND _08_/VPWR sky130_fd_sc_hd__fill_1
XANTENNA__08__A chanx_in_17_ _08_/VGND _08_/VPWR sky130_fd_sc_hd__diode_2
XFILLER_19_12 _08_/VGND _08_/VPWR sky130_fd_sc_hd__fill_2
X_00_ _00_/HI bottom_grid_pin_8_ _01_/VGND _01_/VPWR sky130_fd_sc_hd__conb_1
XFILLER_21_68 _03_/VGND _04_/VPWR sky130_fd_sc_hd__fill_2
XFILLER_21_57 _03_/VGND _04_/VPWR sky130_fd_sc_hd__decap_4
XFILLER_15_135 _06_/VGND _06_/VPWR sky130_fd_sc_hd__decap_4
XFILLER_15_102 _06_/VGND _06_/VPWR sky130_fd_sc_hd__decap_3
XFILLER_7_15 _11_/VGND _11_/VPWR sky130_fd_sc_hd__fill_2
XFILLER_7_59 _11_/VGND _11_/VPWR sky130_fd_sc_hd__fill_2
XFILLER_21_105 _03_/VGND _04_/VPWR sky130_fd_sc_hd__fill_2
XANTENNA__21__A chanx_in_12_ _01_/VGND _01_/VPWR sky130_fd_sc_hd__diode_2
XFILLER_21_3 _03_/VGND _04_/VPWR sky130_fd_sc_hd__decap_4
XANTENNA__16__A chanx_in_8_ _01_/VGND _01_/VPWR sky130_fd_sc_hd__diode_2
XFILLER_4_27 _12_/VGND _02_/VPWR sky130_fd_sc_hd__decap_4
XFILLER_4_101 _12_/VGND _02_/VPWR sky130_fd_sc_hd__decap_3
XANTENNA_clkbuf_0_prog_clk_A prog_clk _13_/VGND _17_/VPWR sky130_fd_sc_hd__diode_2
XFILLER_10_15 _15_/VGND _20_/VPWR sky130_fd_sc_hd__decap_12
XFILLER_2_93 _02_/VGND _01_/VPWR sky130_fd_sc_hd__fill_2
XANTENNA__19__A chanx_in_10_ _02_/VGND _02_/VPWR sky130_fd_sc_hd__diode_2
XANTENNA_mem_top_ipin_1.sc_dff_compact_1_.sky130_fd_sc_hd__dfrbp_1_RESET_B pReset
+ _02_/VGND _02_/VPWR sky130_fd_sc_hd__diode_2
Xmem_bottom_ipin_2.sc_dff_compact_0_.sky130_fd_sc_hd__dfrbp_1 mem_bottom_ipin_2.sc_dff_compact_0_.sky130_fd_sc_hd__dfrbp_1/D
+ mem_bottom_ipin_2.sc_dff_compact_1_.sky130_fd_sc_hd__dfrbp_1/D mem_bottom_ipin_2.sc_dff_compact_0_.sky130_fd_sc_hd__dfrbp_1/Q_N
+ pReset clkbuf_1_0_0_prog_clk/X PHY_35/VGND _06_/VPWR sky130_fd_sc_hd__dfrbp_1
XFILLER_14_3 _06_/VGND PHY_29/VPWR sky130_fd_sc_hd__decap_12
XFILLER_17_90 PHY_35/VGND _09_/VPWR sky130_fd_sc_hd__decap_12
XFILLER_13_15 _13_/VGND PHY_29/VPWR sky130_fd_sc_hd__decap_12
XFILLER_13_59 _13_/VGND PHY_29/VPWR sky130_fd_sc_hd__fill_2
XFILLER_1_18 _01_/VGND _01_/VPWR sky130_fd_sc_hd__fill_2
XFILLER_10_27 _15_/VGND _20_/VPWR sky130_fd_sc_hd__decap_4
XFILLER_10_38 _15_/VGND _20_/VPWR sky130_fd_sc_hd__decap_12
XANTENNA_mem_bottom_ipin_0.sc_dff_compact_5_.sky130_fd_sc_hd__dfrbp_1_RESET_B pReset
+ _22_/VGND _20_/VPWR sky130_fd_sc_hd__diode_2
XPHY_90 _03_/VGND _08_/VPWR sky130_fd_sc_hd__tapvpwrvgnd_1
XFILLER_15_115 _06_/VGND _06_/VPWR sky130_fd_sc_hd__decap_6
XFILLER_11_70 _15_/VGND _17_/VPWR sky130_fd_sc_hd__decap_8
XFILLER_16_15 PHY_35/VGND _06_/VPWR sky130_fd_sc_hd__decap_12
XFILLER_7_100 _11_/VGND _11_/VPWR sky130_fd_sc_hd__fill_1
XFILLER_7_111 _11_/VGND _11_/VPWR sky130_fd_sc_hd__decap_8
XANTENNA_mem_bottom_ipin_0.sc_dff_compact_2_.sky130_fd_sc_hd__dfrbp_1_D mem_bottom_ipin_0.sc_dff_compact_1_.sky130_fd_sc_hd__dfrbp_1/Q
+ _12_/VGND PHY_13/VPWR sky130_fd_sc_hd__diode_2
XFILLER_8_93 _22_/VGND _11_/VPWR sky130_fd_sc_hd__decap_8
XFILLER_13_27 _13_/VGND PHY_29/VPWR sky130_fd_sc_hd__decap_12
XANTENNA_mem_bottom_ipin_1.sc_dff_compact_0_.sky130_fd_sc_hd__dfrbp_1_D mem_bottom_ipin_1.sc_dff_compact_0_.sky130_fd_sc_hd__dfrbp_1/D
+ _15_/VGND _17_/VPWR sky130_fd_sc_hd__diode_2
XFILLER_19_59 _08_/VGND _08_/VPWR sky130_fd_sc_hd__fill_2
XANTENNA_mem_top_ipin_0.sc_dff_compact_1_.sky130_fd_sc_hd__dfrbp_1_RESET_B pReset
+ _06_/VGND _06_/VPWR sky130_fd_sc_hd__diode_2
XFILLER_4_3 _12_/VGND _02_/VPWR sky130_fd_sc_hd__decap_12
XPHY_91 _03_/VGND _08_/VPWR sky130_fd_sc_hd__tapvpwrvgnd_1
XPHY_80 _06_/VGND _06_/VPWR sky130_fd_sc_hd__tapvpwrvgnd_1
XFILLER_2_84 _02_/VGND _01_/VPWR sky130_fd_sc_hd__decap_4
XFILLER_2_40 _02_/VGND _01_/VPWR sky130_fd_sc_hd__fill_2
XANTENNA_mem_bottom_ipin_0.sc_dff_compact_3_.sky130_fd_sc_hd__dfrbp_1_CLK clkbuf_1_0_0_prog_clk/X
+ _11_/VGND PHY_13/VPWR sky130_fd_sc_hd__diode_2
XANTENNA_mem_bottom_ipin_2.sc_dff_compact_5_.sky130_fd_sc_hd__dfrbp_1_CLK clkbuf_1_1_0_prog_clk/X
+ _03_/VGND _04_/VPWR sky130_fd_sc_hd__diode_2
XANTENNA_mem_bottom_ipin_0.sc_dff_compact_5_.sky130_fd_sc_hd__dfrbp_1_D mem_bottom_ipin_0.sc_dff_compact_5_.sky130_fd_sc_hd__dfrbp_1/D
+ _22_/VGND _20_/VPWR sky130_fd_sc_hd__diode_2
XFILLER_20_130 _03_/VGND _08_/VPWR sky130_fd_sc_hd__decap_8
XFILLER_16_27 PHY_35/VGND _06_/VPWR sky130_fd_sc_hd__decap_4
XFILLER_7_123 _11_/VGND _11_/VPWR sky130_fd_sc_hd__decap_12
Xmem_bottom_ipin_0.sc_dff_compact_5_.sky130_fd_sc_hd__dfrbp_1 mem_bottom_ipin_0.sc_dff_compact_5_.sky130_fd_sc_hd__dfrbp_1/D
+ mem_bottom_ipin_1.sc_dff_compact_0_.sky130_fd_sc_hd__dfrbp_1/D mem_bottom_ipin_0.sc_dff_compact_5_.sky130_fd_sc_hd__dfrbp_1/Q_N
+ pReset clkbuf_1_0_0_prog_clk/X _15_/VGND _20_/VPWR sky130_fd_sc_hd__dfrbp_1
XFILLER_13_39 _13_/VGND PHY_29/VPWR sky130_fd_sc_hd__decap_12
XANTENNA_mem_top_ipin_0.sc_dff_compact_1_.sky130_fd_sc_hd__dfrbp_1_CLK clkbuf_1_1_0_prog_clk/X
+ _06_/VGND _06_/VPWR sky130_fd_sc_hd__diode_2
XFILLER_5_51 _12_/VGND PHY_13/VPWR sky130_fd_sc_hd__decap_6
XFILLER_5_62 _12_/VGND PHY_13/VPWR sky130_fd_sc_hd__fill_2
XFILLER_14_60 _06_/VGND PHY_29/VPWR sky130_fd_sc_hd__fill_1
XFILLER_14_93 _06_/VGND PHY_29/VPWR sky130_fd_sc_hd__decap_6
XFILLER_19_16 _08_/VGND _08_/VPWR sky130_fd_sc_hd__decap_12
XPHY_92 _03_/VGND _04_/VPWR sky130_fd_sc_hd__tapvpwrvgnd_1
XPHY_81 _06_/VGND _06_/VPWR sky130_fd_sc_hd__tapvpwrvgnd_1
XPHY_70 _15_/VGND _20_/VPWR sky130_fd_sc_hd__tapvpwrvgnd_1
XFILLER_2_30 _02_/VGND _01_/VPWR sky130_fd_sc_hd__fill_1
XANTENNA_mem_bottom_ipin_2.sc_dff_compact_1_.sky130_fd_sc_hd__dfrbp_1_D mem_bottom_ipin_2.sc_dff_compact_1_.sky130_fd_sc_hd__dfrbp_1/D
+ PHY_35/VGND _09_/VPWR sky130_fd_sc_hd__diode_2
XFILLER_7_19 _11_/VGND _11_/VPWR sky130_fd_sc_hd__decap_12
XFILLER_21_109 _03_/VGND _04_/VPWR sky130_fd_sc_hd__decap_12
XFILLER_22_93 _04_/VGND _04_/VPWR sky130_fd_sc_hd__decap_6
XFILLER_7_135 _11_/VGND _11_/VPWR sky130_fd_sc_hd__decap_4
XFILLER_4_127 _12_/VGND _02_/VPWR sky130_fd_sc_hd__decap_12
XFILLER_12_3 _13_/VGND _17_/VPWR sky130_fd_sc_hd__decap_3
XANTENNA_mem_bottom_ipin_2.sc_dff_compact_4_.sky130_fd_sc_hd__dfrbp_1_D mem_bottom_ipin_2.sc_dff_compact_3_.sky130_fd_sc_hd__dfrbp_1/Q
+ _08_/VGND _08_/VPWR sky130_fd_sc_hd__diode_2