* NGSPICE file created from cby_2__1_.ext - technology: sky130A

* Black-box entry subcircuit for sky130_fd_sc_hd__fill_1 abstract view
.subckt sky130_fd_sc_hd__fill_1 VGND VPWR
.ends

* Black-box entry subcircuit for sky130_fd_sc_hd__dfrbp_1 abstract view
.subckt sky130_fd_sc_hd__dfrbp_1 D Q Q_N RESET_B CLK VGND VPWR
.ends

* Black-box entry subcircuit for sky130_fd_sc_hd__fill_2 abstract view
.subckt sky130_fd_sc_hd__fill_2 VGND VPWR
.ends

* Black-box entry subcircuit for sky130_fd_sc_hd__decap_12 abstract view
.subckt sky130_fd_sc_hd__decap_12 VGND VPWR
.ends

* Black-box entry subcircuit for sky130_fd_sc_hd__diode_2 abstract view
.subckt sky130_fd_sc_hd__diode_2 DIODE VGND VPWR
.ends

* Black-box entry subcircuit for sky130_fd_sc_hd__decap_4 abstract view
.subckt sky130_fd_sc_hd__decap_4 VGND VPWR
.ends

* Black-box entry subcircuit for sky130_fd_sc_hd__decap_6 abstract view
.subckt sky130_fd_sc_hd__decap_6 VGND VPWR
.ends

* Black-box entry subcircuit for sky130_fd_sc_hd__clkbuf_1 abstract view
.subckt sky130_fd_sc_hd__clkbuf_1 A X VGND VPWR
.ends

* Black-box entry subcircuit for sky130_fd_sc_hd__decap_8 abstract view
.subckt sky130_fd_sc_hd__decap_8 VGND VPWR
.ends

* Black-box entry subcircuit for sky130_fd_sc_hd__tapvpwrvgnd_1 abstract view
.subckt sky130_fd_sc_hd__tapvpwrvgnd_1 VGND VPWR
.ends

* Black-box entry subcircuit for sky130_fd_sc_hd__decap_3 abstract view
.subckt sky130_fd_sc_hd__decap_3 VGND VPWR
.ends

* Black-box entry subcircuit for sky130_fd_sc_hd__buf_2 abstract view
.subckt sky130_fd_sc_hd__buf_2 A X VGND VPWR
.ends

* Black-box entry subcircuit for sky130_fd_sc_hd__conb_1 abstract view
.subckt sky130_fd_sc_hd__conb_1 HI LO VGND VPWR
.ends

* Black-box entry subcircuit for sky130_fd_sc_hd__clkbuf_16 abstract view
.subckt sky130_fd_sc_hd__clkbuf_16 A X VGND VPWR
.ends

.subckt cby_2__1_ chany_in_0_ left_grid_pin_1_ chany_in_14_ chany_in_8_ pReset chany_in_3_
+ chany_in_7_ ccff_head chany_in_2_ right_grid_pin_12_ chany_out_10_ chany_in_12_
+ chany_in_9_ chany_in_16_ right_grid_pin_0_ chany_out_7_ chany_out_0_ chany_in_4_
+ chany_out_4_ chany_out_16_ chany_in_17_ left_grid_pin_5_ right_grid_pin_6_ chany_in_15_
+ prog_clk chany_out_13_ ccff_tail chany_in_13_ right_grid_pin_10_ chany_in_10_ chany_out_17_
+ chany_out_12_ right_grid_pin_8_ right_grid_pin_14_ chany_out_2_ chany_out_11_ chany_out_9_
+ chany_in_11_ chany_in_5_ chany_in_1_ chany_out_15_ chany_in_6_ chany_out_5_ right_grid_pin_2_
+ chany_out_8_ chany_out_1_ left_grid_pin_9_ right_grid_pin_4_ chany_out_14_ chany_out_6_
+ chany_out_3_ VPWR VGND
XFILLER_22_122 VGND VPWR sky130_fd_sc_hd__fill_1
Xmem_left_ipin_4.sc_dff_compact_2_.sky130_fd_sc_hd__dfrbp_1 mem_left_ipin_4.sc_dff_compact_1_.sky130_fd_sc_hd__dfrbp_1/Q
+ mem_left_ipin_4.sc_dff_compact_2_.sky130_fd_sc_hd__dfrbp_1/Q mem_left_ipin_4.sc_dff_compact_2_.sky130_fd_sc_hd__dfrbp_1/Q_N
+ pReset clkbuf_3_1_0_prog_clk/X VGND VPWR sky130_fd_sc_hd__dfrbp_1
XFILLER_3_34 VGND VPWR sky130_fd_sc_hd__fill_2
XFILLER_9_159 VGND VPWR sky130_fd_sc_hd__decap_12
Xmem_left_ipin_1.sc_dff_compact_3_.sky130_fd_sc_hd__dfrbp_1 mem_left_ipin_1.sc_dff_compact_2_.sky130_fd_sc_hd__dfrbp_1/Q
+ mem_left_ipin_1.sc_dff_compact_3_.sky130_fd_sc_hd__dfrbp_1/Q mem_left_ipin_1.sc_dff_compact_3_.sky130_fd_sc_hd__dfrbp_1/Q_N
+ pReset clkbuf_3_7_0_prog_clk/X VGND VPWR sky130_fd_sc_hd__dfrbp_1
XANTENNA_mem_left_ipin_7.sc_dff_compact_3_.sky130_fd_sc_hd__dfrbp_1_D mem_left_ipin_7.sc_dff_compact_3_.sky130_fd_sc_hd__dfrbp_1/D
+ VGND VPWR sky130_fd_sc_hd__diode_2
XFILLER_33_217 VGND VPWR sky130_fd_sc_hd__decap_4
XFILLER_6_129 VGND VPWR sky130_fd_sc_hd__decap_12
XFILLER_10_125 VGND VPWR sky130_fd_sc_hd__fill_2
XFILLER_12_32 VGND VPWR sky130_fd_sc_hd__fill_2
XFILLER_5_184 VGND VPWR sky130_fd_sc_hd__decap_12
XFILLER_23_42 VGND VPWR sky130_fd_sc_hd__fill_2
XFILLER_2_176 VGND VPWR sky130_fd_sc_hd__decap_12
XFILLER_2_154 VGND VPWR sky130_fd_sc_hd__decap_6
XANTENNA_clkbuf_2_1_0_prog_clk_A clkbuf_2_1_0_prog_clk/A VGND VPWR sky130_fd_sc_hd__diode_2
Xclkbuf_3_4_0_prog_clk clkbuf_3_5_0_prog_clk/A clkbuf_3_4_0_prog_clk/X VGND VPWR sky130_fd_sc_hd__clkbuf_1
XFILLER_11_220 VGND VPWR sky130_fd_sc_hd__fill_1
XFILLER_29_117 VGND VPWR sky130_fd_sc_hd__fill_1
XFILLER_29_74 VGND VPWR sky130_fd_sc_hd__decap_8
XFILLER_20_32 VGND VPWR sky130_fd_sc_hd__fill_2
XFILLER_13_3 VGND VPWR sky130_fd_sc_hd__decap_12
XFILLER_6_56 VGND VPWR sky130_fd_sc_hd__decap_12
XANTENNA_mem_left_ipin_4.sc_dff_compact_0_.sky130_fd_sc_hd__dfrbp_1_CLK clkbuf_3_0_0_prog_clk/X
+ VGND VPWR sky130_fd_sc_hd__diode_2
XFILLER_31_53 VGND VPWR sky130_fd_sc_hd__fill_2
XFILLER_31_20 VGND VPWR sky130_fd_sc_hd__fill_2
XANTENNA_mem_left_ipin_5.sc_dff_compact_1_.sky130_fd_sc_hd__dfrbp_1_CLK clkbuf_3_4_0_prog_clk/X
+ VGND VPWR sky130_fd_sc_hd__diode_2
XFILLER_15_21 VGND VPWR sky130_fd_sc_hd__fill_1
XFILLER_1_208 VGND VPWR sky130_fd_sc_hd__decap_12
XPHY_192 VGND VPWR sky130_fd_sc_hd__tapvpwrvgnd_1
XFILLER_31_156 VGND VPWR sky130_fd_sc_hd__fill_2
XFILLER_31_123 VGND VPWR sky130_fd_sc_hd__fill_2
XFILLER_31_86 VGND VPWR sky130_fd_sc_hd__decap_6
XPHY_181 VGND VPWR sky130_fd_sc_hd__tapvpwrvgnd_1
XPHY_170 VGND VPWR sky130_fd_sc_hd__tapvpwrvgnd_1
XANTENNA_mem_left_ipin_7.sc_dff_compact_3_.sky130_fd_sc_hd__dfrbp_1_CLK clkbuf_3_4_0_prog_clk/X
+ VGND VPWR sky130_fd_sc_hd__diode_2
XANTENNA_mem_left_ipin_6.sc_dff_compact_2_.sky130_fd_sc_hd__dfrbp_1_CLK clkbuf_3_5_0_prog_clk/X
+ VGND VPWR sky130_fd_sc_hd__diode_2
XFILLER_13_123 VGND VPWR sky130_fd_sc_hd__fill_2
XFILLER_13_112 VGND VPWR sky130_fd_sc_hd__fill_2
XFILLER_3_46 VGND VPWR sky130_fd_sc_hd__fill_2
XFILLER_36_215 VGND VPWR sky130_fd_sc_hd__decap_6
XFILLER_37_63 VGND VPWR sky130_fd_sc_hd__decap_12
XFILLER_18_215 VGND VPWR sky130_fd_sc_hd__decap_6
XFILLER_12_88 VGND VPWR sky130_fd_sc_hd__decap_4
XFILLER_12_55 VGND VPWR sky130_fd_sc_hd__fill_2
XFILLER_5_196 VGND VPWR sky130_fd_sc_hd__fill_2
XFILLER_23_10 VGND VPWR sky130_fd_sc_hd__fill_2
XANTENNA_mem_right_ipin_0.sc_dff_compact_4_.sky130_fd_sc_hd__dfrbp_1_RESET_B pReset
+ VGND VPWR sky130_fd_sc_hd__diode_2
XFILLER_23_87 VGND VPWR sky130_fd_sc_hd__fill_2
XFILLER_2_188 VGND VPWR sky130_fd_sc_hd__decap_12
XFILLER_34_64 VGND VPWR sky130_fd_sc_hd__fill_2
XFILLER_18_32 VGND VPWR sky130_fd_sc_hd__fill_2
XFILLER_28_151 VGND VPWR sky130_fd_sc_hd__fill_2
XFILLER_19_184 VGND VPWR sky130_fd_sc_hd__decap_12
XFILLER_6_68 VGND VPWR sky130_fd_sc_hd__decap_12
XFILLER_34_154 VGND VPWR sky130_fd_sc_hd__decap_4
XFILLER_15_66 VGND VPWR sky130_fd_sc_hd__fill_2
XPHY_193 VGND VPWR sky130_fd_sc_hd__tapvpwrvgnd_1
XPHY_182 VGND VPWR sky130_fd_sc_hd__tapvpwrvgnd_1
XPHY_171 VGND VPWR sky130_fd_sc_hd__tapvpwrvgnd_1
XANTENNA_mem_left_ipin_7.sc_dff_compact_0_.sky130_fd_sc_hd__dfrbp_1_RESET_B pReset
+ VGND VPWR sky130_fd_sc_hd__diode_2
XPHY_160 VGND VPWR sky130_fd_sc_hd__tapvpwrvgnd_1
XFILLER_16_154 VGND VPWR sky130_fd_sc_hd__decap_12
XFILLER_16_132 VGND VPWR sky130_fd_sc_hd__fill_2
XFILLER_30_190 VGND VPWR sky130_fd_sc_hd__decap_8
XFILLER_22_179 VGND VPWR sky130_fd_sc_hd__decap_12
XFILLER_26_65 VGND VPWR sky130_fd_sc_hd__decap_12
XFILLER_26_32 VGND VPWR sky130_fd_sc_hd__fill_2
Xmem_left_ipin_6.sc_dff_compact_0_.sky130_fd_sc_hd__dfrbp_1 mem_left_ipin_5.sc_dff_compact_5_.sky130_fd_sc_hd__dfrbp_1/Q
+ mem_left_ipin_6.sc_dff_compact_0_.sky130_fd_sc_hd__dfrbp_1/Q mem_left_ipin_6.sc_dff_compact_0_.sky130_fd_sc_hd__dfrbp_1/Q_N
+ pReset clkbuf_3_5_0_prog_clk/X VGND VPWR sky130_fd_sc_hd__dfrbp_1
XANTENNA_mem_right_ipin_0.sc_dff_compact_4_.sky130_fd_sc_hd__dfrbp_1_CLK clkbuf_3_3_0_prog_clk/X
+ VGND VPWR sky130_fd_sc_hd__diode_2
XFILLER_12_190 VGND VPWR sky130_fd_sc_hd__decap_12
XFILLER_3_58 VGND VPWR sky130_fd_sc_hd__decap_3
Xmem_left_ipin_3.sc_dff_compact_1_.sky130_fd_sc_hd__dfrbp_1 mem_left_ipin_3.sc_dff_compact_0_.sky130_fd_sc_hd__dfrbp_1/Q
+ mem_left_ipin_3.sc_dff_compact_1_.sky130_fd_sc_hd__dfrbp_1/Q mem_left_ipin_3.sc_dff_compact_1_.sky130_fd_sc_hd__dfrbp_1/Q_N
+ pReset clkbuf_3_1_0_prog_clk/X VGND VPWR sky130_fd_sc_hd__dfrbp_1
XFILLER_10_105 VGND VPWR sky130_fd_sc_hd__decap_12
XFILLER_37_75 VGND VPWR sky130_fd_sc_hd__decap_12
XFILLER_15_208 VGND VPWR sky130_fd_sc_hd__decap_12
Xmem_left_ipin_0.sc_dff_compact_2_.sky130_fd_sc_hd__dfrbp_1 mem_left_ipin_0.sc_dff_compact_2_.sky130_fd_sc_hd__dfrbp_1/D
+ mem_left_ipin_0.sc_dff_compact_2_.sky130_fd_sc_hd__dfrbp_1/Q mem_left_ipin_0.sc_dff_compact_2_.sky130_fd_sc_hd__dfrbp_1/Q_N
+ pReset clkbuf_3_6_0_prog_clk/X VGND VPWR sky130_fd_sc_hd__dfrbp_1
XFILLER_3_3 VGND VPWR sky130_fd_sc_hd__decap_12
XFILLER_0_15 VGND VPWR sky130_fd_sc_hd__decap_12
XFILLER_36_3 VGND VPWR sky130_fd_sc_hd__decap_12
XFILLER_34_32 VGND VPWR sky130_fd_sc_hd__fill_2
XFILLER_34_21 VGND VPWR sky130_fd_sc_hd__fill_2
XFILLER_18_11 VGND VPWR sky130_fd_sc_hd__decap_3
Xmem_right_ipin_0.sc_dff_compact_3_.sky130_fd_sc_hd__dfrbp_1 mem_right_ipin_0.sc_dff_compact_2_.sky130_fd_sc_hd__dfrbp_1/Q
+ mem_right_ipin_0.sc_dff_compact_4_.sky130_fd_sc_hd__dfrbp_1/D mem_right_ipin_0.sc_dff_compact_3_.sky130_fd_sc_hd__dfrbp_1/Q_N
+ pReset clkbuf_3_2_0_prog_clk/X VGND VPWR sky130_fd_sc_hd__dfrbp_1
XFILLER_22_9 VGND VPWR sky130_fd_sc_hd__decap_3
XANTENNA_clkbuf_1_0_0_prog_clk_A clkbuf_0_prog_clk/X VGND VPWR sky130_fd_sc_hd__diode_2
XFILLER_29_43 VGND VPWR sky130_fd_sc_hd__fill_2
XFILLER_34_177 VGND VPWR sky130_fd_sc_hd__decap_8
XFILLER_34_144 VGND VPWR sky130_fd_sc_hd__decap_8
XFILLER_19_196 VGND VPWR sky130_fd_sc_hd__decap_12
XFILLER_19_152 VGND VPWR sky130_fd_sc_hd__decap_12
XFILLER_31_99 VGND VPWR sky130_fd_sc_hd__fill_2
XFILLER_25_111 VGND VPWR sky130_fd_sc_hd__decap_8
XFILLER_16_166 VGND VPWR sky130_fd_sc_hd__decap_12
XFILLER_16_144 VGND VPWR sky130_fd_sc_hd__decap_8
XFILLER_15_89 VGND VPWR sky130_fd_sc_hd__fill_2
XPHY_194 VGND VPWR sky130_fd_sc_hd__tapvpwrvgnd_1
XFILLER_31_103 VGND VPWR sky130_fd_sc_hd__decap_8
XPHY_183 VGND VPWR sky130_fd_sc_hd__tapvpwrvgnd_1
XPHY_172 VGND VPWR sky130_fd_sc_hd__tapvpwrvgnd_1
Xclkbuf_2_1_0_prog_clk clkbuf_2_1_0_prog_clk/A clkbuf_3_3_0_prog_clk/A VGND VPWR sky130_fd_sc_hd__clkbuf_1
XPHY_161 VGND VPWR sky130_fd_sc_hd__tapvpwrvgnd_1
XFILLER_22_125 VGND VPWR sky130_fd_sc_hd__fill_2
XPHY_150 VGND VPWR sky130_fd_sc_hd__tapvpwrvgnd_1
XFILLER_26_77 VGND VPWR sky130_fd_sc_hd__decap_12
XFILLER_13_103 VGND VPWR sky130_fd_sc_hd__decap_6
XFILLER_3_15 VGND VPWR sky130_fd_sc_hd__decap_12
XFILLER_10_117 VGND VPWR sky130_fd_sc_hd__fill_2
XFILLER_37_87 VGND VPWR sky130_fd_sc_hd__decap_6
XFILLER_37_32 VGND VPWR sky130_fd_sc_hd__decap_12
XFILLER_5_110 VGND VPWR sky130_fd_sc_hd__decap_12
XFILLER_4_80 VGND VPWR sky130_fd_sc_hd__decap_12
XANTENNA__12__A chany_in_10_ VGND VPWR sky130_fd_sc_hd__diode_2
XFILLER_23_220 VGND VPWR sky130_fd_sc_hd__fill_1
XFILLER_0_27 VGND VPWR sky130_fd_sc_hd__decap_4
XFILLER_29_3 VGND VPWR sky130_fd_sc_hd__decap_8
XFILLER_20_13 VGND VPWR sky130_fd_sc_hd__fill_2
XANTENNA_mem_left_ipin_6.sc_dff_compact_0_.sky130_fd_sc_hd__dfrbp_1_RESET_B pReset
+ VGND VPWR sky130_fd_sc_hd__diode_2
Xclkbuf_3_3_0_prog_clk clkbuf_3_3_0_prog_clk/A clkbuf_3_3_0_prog_clk/X VGND VPWR sky130_fd_sc_hd__clkbuf_1
XFILLER_29_88 VGND VPWR sky130_fd_sc_hd__fill_2
XFILLER_29_11 VGND VPWR sky130_fd_sc_hd__fill_1
XFILLER_20_68 VGND VPWR sky130_fd_sc_hd__decap_12
XFILLER_20_57 VGND VPWR sky130_fd_sc_hd__decap_4
XFILLER_6_15 VGND VPWR sky130_fd_sc_hd__decap_12
XFILLER_19_164 VGND VPWR sky130_fd_sc_hd__decap_12
XFILLER_19_120 VGND VPWR sky130_fd_sc_hd__fill_2
XFILLER_31_45 VGND VPWR sky130_fd_sc_hd__fill_2
XFILLER_25_123 VGND VPWR sky130_fd_sc_hd__decap_12
XFILLER_25_101 VGND VPWR sky130_fd_sc_hd__decap_4
XFILLER_15_24 VGND VPWR sky130_fd_sc_hd__fill_2
XFILLER_0_211 VGND VPWR sky130_fd_sc_hd__decap_6
XANTENNA__20__A chany_in_1_ VGND VPWR sky130_fd_sc_hd__diode_2
XPHY_195 VGND VPWR sky130_fd_sc_hd__tapvpwrvgnd_1
XFILLER_31_148 VGND VPWR sky130_fd_sc_hd__decap_6
XPHY_184 VGND VPWR sky130_fd_sc_hd__tapvpwrvgnd_1
XPHY_173 VGND VPWR sky130_fd_sc_hd__tapvpwrvgnd_1
XPHY_162 VGND VPWR sky130_fd_sc_hd__tapvpwrvgnd_1
Xmem_left_ipin_7.sc_dff_compact_4_.sky130_fd_sc_hd__dfrbp_1 mem_left_ipin_7.sc_dff_compact_3_.sky130_fd_sc_hd__dfrbp_1/Q
+ mem_left_ipin_7.sc_dff_compact_5_.sky130_fd_sc_hd__dfrbp_1/D mem_left_ipin_7.sc_dff_compact_4_.sky130_fd_sc_hd__dfrbp_1/Q_N
+ pReset clkbuf_3_1_0_prog_clk/X VGND VPWR sky130_fd_sc_hd__dfrbp_1
XPHY_151 VGND VPWR sky130_fd_sc_hd__tapvpwrvgnd_1
XPHY_140 VGND VPWR sky130_fd_sc_hd__tapvpwrvgnd_1
XFILLER_16_178 VGND VPWR sky130_fd_sc_hd__decap_12
XFILLER_11_3 VGND VPWR sky130_fd_sc_hd__decap_12
XANTENNA_mem_left_ipin_0.sc_dff_compact_3_.sky130_fd_sc_hd__dfrbp_1_CLK clkbuf_3_6_0_prog_clk/X
+ VGND VPWR sky130_fd_sc_hd__diode_2
XFILLER_26_89 VGND VPWR sky130_fd_sc_hd__decap_3
XANTENNA_mem_left_ipin_1.sc_dff_compact_4_.sky130_fd_sc_hd__dfrbp_1_CLK clkbuf_3_7_0_prog_clk/X
+ VGND VPWR sky130_fd_sc_hd__diode_2
XANTENNA_mem_left_ipin_2.sc_dff_compact_5_.sky130_fd_sc_hd__dfrbp_1_CLK clkbuf_3_0_0_prog_clk/X
+ VGND VPWR sky130_fd_sc_hd__diode_2
XFILLER_3_38 VGND VPWR sky130_fd_sc_hd__decap_4
XFILLER_3_27 VGND VPWR sky130_fd_sc_hd__decap_3
XANTENNA__15__A chany_in_13_ VGND VPWR sky130_fd_sc_hd__diode_2
Xmem_left_ipin_4.sc_dff_compact_5_.sky130_fd_sc_hd__dfrbp_1 mem_left_ipin_4.sc_dff_compact_4_.sky130_fd_sc_hd__dfrbp_1/Q
+ mem_left_ipin_4.sc_dff_compact_5_.sky130_fd_sc_hd__dfrbp_1/Q mem_left_ipin_4.sc_dff_compact_5_.sky130_fd_sc_hd__dfrbp_1/Q_N
+ pReset clkbuf_3_4_0_prog_clk/X VGND VPWR sky130_fd_sc_hd__dfrbp_1
XFILLER_8_141 VGND VPWR sky130_fd_sc_hd__decap_12
XFILLER_10_129 VGND VPWR sky130_fd_sc_hd__fill_2
XFILLER_12_36 VGND VPWR sky130_fd_sc_hd__decap_12
XFILLER_37_44 VGND VPWR sky130_fd_sc_hd__decap_12
XFILLER_23_57 VGND VPWR sky130_fd_sc_hd__decap_4
XFILLER_23_46 VGND VPWR sky130_fd_sc_hd__decap_4
XFILLER_23_35 VGND VPWR sky130_fd_sc_hd__decap_4
Xmem_left_ipin_2.sc_dff_compact_0_.sky130_fd_sc_hd__dfrbp_1 mem_left_ipin_1.sc_dff_compact_5_.sky130_fd_sc_hd__dfrbp_1/Q
+ mem_left_ipin_2.sc_dff_compact_1_.sky130_fd_sc_hd__dfrbp_1/D mem_left_ipin_2.sc_dff_compact_0_.sky130_fd_sc_hd__dfrbp_1/Q_N
+ pReset clkbuf_3_6_0_prog_clk/X VGND VPWR sky130_fd_sc_hd__dfrbp_1
XFILLER_9_15 VGND VPWR sky130_fd_sc_hd__decap_12
XFILLER_9_59 VGND VPWR sky130_fd_sc_hd__fill_2
XFILLER_20_202 VGND VPWR sky130_fd_sc_hd__decap_12
XFILLER_18_57 VGND VPWR sky130_fd_sc_hd__decap_12
XFILLER_18_24 VGND VPWR sky130_fd_sc_hd__fill_2
XANTENNA__23__A chany_in_4_ VGND VPWR sky130_fd_sc_hd__diode_2
XFILLER_37_187 VGND VPWR sky130_fd_sc_hd__decap_12
Xmem_right_ipin_2.sc_dff_compact_1_.sky130_fd_sc_hd__dfrbp_1 mem_right_ipin_2.sc_dff_compact_0_.sky130_fd_sc_hd__dfrbp_1/Q
+ ccff_tail mem_right_ipin_2.sc_dff_compact_1_.sky130_fd_sc_hd__dfrbp_1/Q_N pReset
+ clkbuf_3_2_0_prog_clk/X VGND VPWR sky130_fd_sc_hd__dfrbp_1
X_28_ chany_in_9_ chany_out_9_ VGND VPWR sky130_fd_sc_hd__buf_2
XANTENNA__18__A chany_in_16_ VGND VPWR sky130_fd_sc_hd__diode_2
XFILLER_28_154 VGND VPWR sky130_fd_sc_hd__decap_12
XFILLER_28_143 VGND VPWR sky130_fd_sc_hd__decap_8
XFILLER_28_110 VGND VPWR sky130_fd_sc_hd__fill_2
XFILLER_19_176 VGND VPWR sky130_fd_sc_hd__decap_6
XFILLER_6_27 VGND VPWR sky130_fd_sc_hd__decap_4
XANTENNA_mem_left_ipin_0.sc_dff_compact_1_.sky130_fd_sc_hd__dfrbp_1_D mem_left_ipin_0.sc_dff_compact_0_.sky130_fd_sc_hd__dfrbp_1/Q
+ VGND VPWR sky130_fd_sc_hd__diode_2
XFILLER_31_57 VGND VPWR sky130_fd_sc_hd__decap_4
XFILLER_25_135 VGND VPWR sky130_fd_sc_hd__decap_12
XANTENNA_mem_right_ipin_0.sc_dff_compact_1_.sky130_fd_sc_hd__dfrbp_1_D mem_right_ipin_0.sc_dff_compact_1_.sky130_fd_sc_hd__dfrbp_1/D
+ VGND VPWR sky130_fd_sc_hd__diode_2
XPHY_196 VGND VPWR sky130_fd_sc_hd__tapvpwrvgnd_1
XFILLER_31_116 VGND VPWR sky130_fd_sc_hd__fill_2
XPHY_185 VGND VPWR sky130_fd_sc_hd__tapvpwrvgnd_1
XPHY_174 VGND VPWR sky130_fd_sc_hd__tapvpwrvgnd_1
XFILLER_24_190 VGND VPWR sky130_fd_sc_hd__decap_12
XPHY_163 VGND VPWR sky130_fd_sc_hd__tapvpwrvgnd_1
XPHY_152 VGND VPWR sky130_fd_sc_hd__tapvpwrvgnd_1
XPHY_141 VGND VPWR sky130_fd_sc_hd__tapvpwrvgnd_1
XPHY_130 VGND VPWR sky130_fd_sc_hd__tapvpwrvgnd_1
XANTENNA_mem_right_ipin_0.sc_dff_compact_5_.sky130_fd_sc_hd__dfrbp_1_RESET_B pReset
+ VGND VPWR sky130_fd_sc_hd__diode_2
XFILLER_26_57 VGND VPWR sky130_fd_sc_hd__decap_6
XFILLER_21_182 VGND VPWR sky130_fd_sc_hd__fill_1
XFILLER_21_160 VGND VPWR sky130_fd_sc_hd__fill_2
XFILLER_13_127 VGND VPWR sky130_fd_sc_hd__fill_2
XFILLER_13_116 VGND VPWR sky130_fd_sc_hd__fill_2
XFILLER_27_208 VGND VPWR sky130_fd_sc_hd__decap_12
XFILLER_37_56 VGND VPWR sky130_fd_sc_hd__decap_6
XANTENNA__26__A chany_in_7_ VGND VPWR sky130_fd_sc_hd__diode_2
XFILLER_12_15 VGND VPWR sky130_fd_sc_hd__decap_12
XFILLER_12_48 VGND VPWR sky130_fd_sc_hd__decap_4
XFILLER_12_59 VGND VPWR sky130_fd_sc_hd__fill_2
XFILLER_32_211 VGND VPWR sky130_fd_sc_hd__decap_3
XFILLER_5_123 VGND VPWR sky130_fd_sc_hd__decap_12
XFILLER_4_93 VGND VPWR sky130_fd_sc_hd__decap_12
XANTENNA_mem_left_ipin_5.sc_dff_compact_0_.sky130_fd_sc_hd__dfrbp_1_RESET_B pReset
+ VGND VPWR sky130_fd_sc_hd__diode_2
XFILLER_13_91 VGND VPWR sky130_fd_sc_hd__decap_12
XFILLER_9_27 VGND VPWR sky130_fd_sc_hd__decap_12
XANTENNA_mem_left_ipin_0.sc_dff_compact_4_.sky130_fd_sc_hd__dfrbp_1_D mem_left_ipin_0.sc_dff_compact_4_.sky130_fd_sc_hd__dfrbp_1/D
+ VGND VPWR sky130_fd_sc_hd__diode_2
XANTENNA_mem_left_ipin_5.sc_dff_compact_0_.sky130_fd_sc_hd__dfrbp_1_CLK clkbuf_3_4_0_prog_clk/X
+ VGND VPWR sky130_fd_sc_hd__diode_2
XFILLER_34_68 VGND VPWR sky130_fd_sc_hd__decap_12
XFILLER_34_57 VGND VPWR sky130_fd_sc_hd__decap_4
XANTENNA_clkbuf_3_3_0_prog_clk_A clkbuf_3_3_0_prog_clk/A VGND VPWR sky130_fd_sc_hd__diode_2
XANTENNA_mem_right_ipin_0.sc_dff_compact_4_.sky130_fd_sc_hd__dfrbp_1_D mem_right_ipin_0.sc_dff_compact_4_.sky130_fd_sc_hd__dfrbp_1/D
+ VGND VPWR sky130_fd_sc_hd__diode_2
XANTENNA_mem_left_ipin_7.sc_dff_compact_1_.sky130_fd_sc_hd__dfrbp_1_RESET_B pReset
+ VGND VPWR sky130_fd_sc_hd__diode_2
XFILLER_18_69 VGND VPWR sky130_fd_sc_hd__decap_12
XANTENNA_mem_left_ipin_6.sc_dff_compact_1_.sky130_fd_sc_hd__dfrbp_1_CLK clkbuf_3_4_0_prog_clk/X
+ VGND VPWR sky130_fd_sc_hd__diode_2
XFILLER_1_3 VGND VPWR sky130_fd_sc_hd__decap_12
XFILLER_37_199 VGND VPWR sky130_fd_sc_hd__decap_12
XFILLER_34_3 VGND VPWR sky130_fd_sc_hd__decap_12
XFILLER_24_90 VGND VPWR sky130_fd_sc_hd__fill_2
X_27_ chany_in_8_ chany_out_8_ VGND VPWR sky130_fd_sc_hd__buf_2
XANTENNA_mem_left_ipin_7.sc_dff_compact_2_.sky130_fd_sc_hd__dfrbp_1_CLK clkbuf_3_4_0_prog_clk/X
+ VGND VPWR sky130_fd_sc_hd__diode_2
XFILLER_28_166 VGND VPWR sky130_fd_sc_hd__decap_12
XFILLER_20_9 VGND VPWR sky130_fd_sc_hd__fill_2
XFILLER_33_180 VGND VPWR sky130_fd_sc_hd__decap_3
XFILLER_25_147 VGND VPWR sky130_fd_sc_hd__decap_12
XFILLER_15_59 VGND VPWR sky130_fd_sc_hd__fill_2
XFILLER_15_15 VGND VPWR sky130_fd_sc_hd__decap_6
XPHY_197 VGND VPWR sky130_fd_sc_hd__tapvpwrvgnd_1
XPHY_186 VGND VPWR sky130_fd_sc_hd__tapvpwrvgnd_1
XPHY_175 VGND VPWR sky130_fd_sc_hd__tapvpwrvgnd_1
XPHY_164 VGND VPWR sky130_fd_sc_hd__tapvpwrvgnd_1
XPHY_153 VGND VPWR sky130_fd_sc_hd__tapvpwrvgnd_1
XPHY_142 VGND VPWR sky130_fd_sc_hd__tapvpwrvgnd_1
XFILLER_16_136 VGND VPWR sky130_fd_sc_hd__fill_2
XFILLER_16_103 VGND VPWR sky130_fd_sc_hd__fill_2
XPHY_131 VGND VPWR sky130_fd_sc_hd__tapvpwrvgnd_1
XPHY_120 VGND VPWR sky130_fd_sc_hd__tapvpwrvgnd_1
XPHY_0 VGND VPWR sky130_fd_sc_hd__decap_3
XANTENNA_mem_left_ipin_1.sc_dff_compact_2_.sky130_fd_sc_hd__dfrbp_1_D mem_left_ipin_1.sc_dff_compact_1_.sky130_fd_sc_hd__dfrbp_1/Q
+ VGND VPWR sky130_fd_sc_hd__diode_2
XFILLER_32_90 VGND VPWR sky130_fd_sc_hd__fill_2
XFILLER_8_154 VGND VPWR sky130_fd_sc_hd__decap_12
Xmem_left_ipin_6.sc_dff_compact_3_.sky130_fd_sc_hd__dfrbp_1 mem_left_ipin_6.sc_dff_compact_2_.sky130_fd_sc_hd__dfrbp_1/Q
+ mem_left_ipin_6.sc_dff_compact_4_.sky130_fd_sc_hd__dfrbp_1/D mem_left_ipin_6.sc_dff_compact_3_.sky130_fd_sc_hd__dfrbp_1/Q_N
+ pReset clkbuf_3_5_0_prog_clk/X VGND VPWR sky130_fd_sc_hd__dfrbp_1
XFILLER_12_27 VGND VPWR sky130_fd_sc_hd__decap_4
Xclkbuf_2_0_0_prog_clk clkbuf_2_1_0_prog_clk/A clkbuf_2_0_0_prog_clk/X VGND VPWR sky130_fd_sc_hd__clkbuf_1
XFILLER_17_220 VGND VPWR sky130_fd_sc_hd__fill_1
XFILLER_5_135 VGND VPWR sky130_fd_sc_hd__decap_12
XFILLER_4_190 VGND VPWR sky130_fd_sc_hd__decap_12
Xmem_left_ipin_3.sc_dff_compact_4_.sky130_fd_sc_hd__dfrbp_1 mem_left_ipin_3.sc_dff_compact_3_.sky130_fd_sc_hd__dfrbp_1/Q
+ mem_left_ipin_3.sc_dff_compact_5_.sky130_fd_sc_hd__dfrbp_1/D mem_left_ipin_3.sc_dff_compact_4_.sky130_fd_sc_hd__dfrbp_1/Q_N
+ pReset clkbuf_3_0_0_prog_clk/X VGND VPWR sky130_fd_sc_hd__dfrbp_1
XFILLER_2_105 VGND VPWR sky130_fd_sc_hd__decap_12
XFILLER_9_39 VGND VPWR sky130_fd_sc_hd__decap_12
Xmem_left_ipin_0.sc_dff_compact_5_.sky130_fd_sc_hd__dfrbp_1 mem_left_ipin_0.sc_dff_compact_4_.sky130_fd_sc_hd__dfrbp_1/Q
+ mem_left_ipin_0.sc_dff_compact_5_.sky130_fd_sc_hd__dfrbp_1/Q mem_left_ipin_0.sc_dff_compact_5_.sky130_fd_sc_hd__dfrbp_1/Q_N
+ pReset clkbuf_3_7_0_prog_clk/X VGND VPWR sky130_fd_sc_hd__dfrbp_1
XFILLER_20_215 VGND VPWR sky130_fd_sc_hd__decap_6
XFILLER_1_182 VGND VPWR sky130_fd_sc_hd__fill_1
XFILLER_34_25 VGND VPWR sky130_fd_sc_hd__fill_2
XANTENNA_mem_left_ipin_2.sc_dff_compact_0_.sky130_fd_sc_hd__dfrbp_1_D mem_left_ipin_1.sc_dff_compact_5_.sky130_fd_sc_hd__dfrbp_1/Q
+ VGND VPWR sky130_fd_sc_hd__diode_2
XFILLER_7_208 VGND VPWR sky130_fd_sc_hd__decap_12
XANTENNA_mem_right_ipin_2.sc_dff_compact_0_.sky130_fd_sc_hd__dfrbp_1_D mem_right_ipin_2.sc_dff_compact_0_.sky130_fd_sc_hd__dfrbp_1/D
+ VGND VPWR sky130_fd_sc_hd__diode_2
XFILLER_27_3 VGND VPWR sky130_fd_sc_hd__decap_6
XFILLER_37_156 VGND VPWR sky130_fd_sc_hd__decap_12
XFILLER_29_47 VGND VPWR sky130_fd_sc_hd__fill_2
XFILLER_29_14 VGND VPWR sky130_fd_sc_hd__fill_2
X_26_ chany_in_7_ chany_out_7_ VGND VPWR sky130_fd_sc_hd__buf_2
XFILLER_1_62 VGND VPWR sky130_fd_sc_hd__decap_12
XFILLER_1_51 VGND VPWR sky130_fd_sc_hd__decap_8
XANTENNA_mem_left_ipin_1.sc_dff_compact_5_.sky130_fd_sc_hd__dfrbp_1_D mem_left_ipin_1.sc_dff_compact_4_.sky130_fd_sc_hd__dfrbp_1/Q
+ VGND VPWR sky130_fd_sc_hd__diode_2
XFILLER_28_178 VGND VPWR sky130_fd_sc_hd__decap_12
XFILLER_19_123 VGND VPWR sky130_fd_sc_hd__fill_2
XFILLER_10_60 VGND VPWR sky130_fd_sc_hd__decap_12
XFILLER_10_93 VGND VPWR sky130_fd_sc_hd__decap_12
X_09_ _09_/HI right_grid_pin_2_ VGND VPWR sky130_fd_sc_hd__conb_1
XANTENNA_mem_right_ipin_0.sc_dff_compact_3_.sky130_fd_sc_hd__dfrbp_1_CLK clkbuf_3_2_0_prog_clk/X
+ VGND VPWR sky130_fd_sc_hd__diode_2
XFILLER_25_159 VGND VPWR sky130_fd_sc_hd__decap_12
XPHY_198 VGND VPWR sky130_fd_sc_hd__tapvpwrvgnd_1
XFILLER_31_15 VGND VPWR sky130_fd_sc_hd__decap_3
Xmem_right_ipin_1.sc_dff_compact_0_.sky130_fd_sc_hd__dfrbp_1 mem_right_ipin_1.sc_dff_compact_0_.sky130_fd_sc_hd__dfrbp_1/D
+ mem_right_ipin_1.sc_dff_compact_1_.sky130_fd_sc_hd__dfrbp_1/D mem_right_ipin_1.sc_dff_compact_0_.sky130_fd_sc_hd__dfrbp_1/Q_N
+ pReset clkbuf_3_2_0_prog_clk/X VGND VPWR sky130_fd_sc_hd__dfrbp_1
XPHY_187 VGND VPWR sky130_fd_sc_hd__tapvpwrvgnd_1
XPHY_176 VGND VPWR sky130_fd_sc_hd__tapvpwrvgnd_1
XPHY_165 VGND VPWR sky130_fd_sc_hd__tapvpwrvgnd_1
XPHY_154 VGND VPWR sky130_fd_sc_hd__tapvpwrvgnd_1
XPHY_143 VGND VPWR sky130_fd_sc_hd__tapvpwrvgnd_1
XPHY_132 VGND VPWR sky130_fd_sc_hd__tapvpwrvgnd_1
XPHY_110 VGND VPWR sky130_fd_sc_hd__tapvpwrvgnd_1
XPHY_121 VGND VPWR sky130_fd_sc_hd__tapvpwrvgnd_1
XFILLER_22_129 VGND VPWR sky130_fd_sc_hd__decap_12
XFILLER_22_118 VGND VPWR sky130_fd_sc_hd__decap_4
XPHY_1 VGND VPWR sky130_fd_sc_hd__decap_3
Xclkbuf_3_2_0_prog_clk clkbuf_3_3_0_prog_clk/A clkbuf_3_2_0_prog_clk/X VGND VPWR sky130_fd_sc_hd__clkbuf_1
XFILLER_26_15 VGND VPWR sky130_fd_sc_hd__fill_2
XFILLER_21_184 VGND VPWR sky130_fd_sc_hd__decap_12
XFILLER_8_166 VGND VPWR sky130_fd_sc_hd__decap_12
XANTENNA_mem_left_ipin_4.sc_dff_compact_0_.sky130_fd_sc_hd__dfrbp_1_RESET_B pReset
+ VGND VPWR sky130_fd_sc_hd__diode_2
XANTENNA_mem_left_ipin_2.sc_dff_compact_3_.sky130_fd_sc_hd__dfrbp_1_D mem_left_ipin_2.sc_dff_compact_2_.sky130_fd_sc_hd__dfrbp_1/Q
+ VGND VPWR sky130_fd_sc_hd__diode_2
XFILLER_5_147 VGND VPWR sky130_fd_sc_hd__decap_12
XANTENNA_mem_left_ipin_6.sc_dff_compact_1_.sky130_fd_sc_hd__dfrbp_1_RESET_B pReset
+ VGND VPWR sky130_fd_sc_hd__diode_2
XFILLER_14_202 VGND VPWR sky130_fd_sc_hd__decap_12
XFILLER_2_117 VGND VPWR sky130_fd_sc_hd__decap_12
XFILLER_34_15 VGND VPWR sky130_fd_sc_hd__decap_3
XFILLER_18_16 VGND VPWR sky130_fd_sc_hd__decap_6
XFILLER_37_168 VGND VPWR sky130_fd_sc_hd__decap_12
XFILLER_20_17 VGND VPWR sky130_fd_sc_hd__decap_12
X_25_ chany_in_6_ chany_out_6_ VGND VPWR sky130_fd_sc_hd__buf_2
XFILLER_1_74 VGND VPWR sky130_fd_sc_hd__decap_12
XFILLER_36_190 VGND VPWR sky130_fd_sc_hd__decap_8
XFILLER_29_59 VGND VPWR sky130_fd_sc_hd__fill_2
XFILLER_28_135 VGND VPWR sky130_fd_sc_hd__fill_2
XANTENNA_mem_left_ipin_3.sc_dff_compact_1_.sky130_fd_sc_hd__dfrbp_1_D mem_left_ipin_3.sc_dff_compact_0_.sky130_fd_sc_hd__dfrbp_1/Q
+ VGND VPWR sky130_fd_sc_hd__diode_2
XFILLER_10_72 VGND VPWR sky130_fd_sc_hd__decap_12
X_08_ _08_/HI right_grid_pin_14_ VGND VPWR sky130_fd_sc_hd__conb_1
XFILLER_34_127 VGND VPWR sky130_fd_sc_hd__decap_12
XANTENNA_clkbuf_2_2_0_prog_clk_A clkbuf_2_3_0_prog_clk/A VGND VPWR sky130_fd_sc_hd__diode_2
XFILLER_19_81 VGND VPWR sky130_fd_sc_hd__fill_2
XFILLER_33_160 VGND VPWR sky130_fd_sc_hd__decap_12
XFILLER_31_49 VGND VPWR sky130_fd_sc_hd__fill_2
XFILLER_18_190 VGND VPWR sky130_fd_sc_hd__decap_8
XFILLER_15_28 VGND VPWR sky130_fd_sc_hd__fill_2
XPHY_100 VGND VPWR sky130_fd_sc_hd__tapvpwrvgnd_1
XPHY_199 VGND VPWR sky130_fd_sc_hd__tapvpwrvgnd_1
XPHY_188 VGND VPWR sky130_fd_sc_hd__tapvpwrvgnd_1
XPHY_177 VGND VPWR sky130_fd_sc_hd__tapvpwrvgnd_1
XPHY_166 VGND VPWR sky130_fd_sc_hd__tapvpwrvgnd_1
XPHY_155 VGND VPWR sky130_fd_sc_hd__tapvpwrvgnd_1
XPHY_144 VGND VPWR sky130_fd_sc_hd__tapvpwrvgnd_1
XPHY_133 VGND VPWR sky130_fd_sc_hd__tapvpwrvgnd_1
XPHY_2 VGND VPWR sky130_fd_sc_hd__decap_3
XPHY_111 VGND VPWR sky130_fd_sc_hd__tapvpwrvgnd_1
XPHY_122 VGND VPWR sky130_fd_sc_hd__tapvpwrvgnd_1
XFILLER_21_196 VGND VPWR sky130_fd_sc_hd__fill_2
XFILLER_7_51 VGND VPWR sky130_fd_sc_hd__decap_8
XFILLER_7_62 VGND VPWR sky130_fd_sc_hd__decap_12
XFILLER_16_93 VGND VPWR sky130_fd_sc_hd__decap_8
XFILLER_16_60 VGND VPWR sky130_fd_sc_hd__fill_1
XFILLER_8_178 VGND VPWR sky130_fd_sc_hd__decap_12
XFILLER_37_15 VGND VPWR sky130_fd_sc_hd__decap_12
XFILLER_5_159 VGND VPWR sky130_fd_sc_hd__decap_12
XFILLER_32_203 VGND VPWR sky130_fd_sc_hd__decap_8
XFILLER_17_200 VGND VPWR sky130_fd_sc_hd__decap_12
XFILLER_23_39 VGND VPWR sky130_fd_sc_hd__fill_1
XFILLER_2_129 VGND VPWR sky130_fd_sc_hd__decap_12
Xmem_left_ipin_5.sc_dff_compact_2_.sky130_fd_sc_hd__dfrbp_1 mem_left_ipin_5.sc_dff_compact_1_.sky130_fd_sc_hd__dfrbp_1/Q
+ mem_left_ipin_5.sc_dff_compact_3_.sky130_fd_sc_hd__dfrbp_1/D mem_left_ipin_5.sc_dff_compact_2_.sky130_fd_sc_hd__dfrbp_1/Q_N
+ pReset clkbuf_3_5_0_prog_clk/X VGND VPWR sky130_fd_sc_hd__dfrbp_1
XFILLER_1_184 VGND VPWR sky130_fd_sc_hd__decap_12
XFILLER_1_162 VGND VPWR sky130_fd_sc_hd__decap_12
XANTENNA_mem_left_ipin_3.sc_dff_compact_4_.sky130_fd_sc_hd__dfrbp_1_D mem_left_ipin_3.sc_dff_compact_3_.sky130_fd_sc_hd__dfrbp_1/Q
+ VGND VPWR sky130_fd_sc_hd__diode_2
XFILLER_24_93 VGND VPWR sky130_fd_sc_hd__fill_2
XFILLER_24_71 VGND VPWR sky130_fd_sc_hd__decap_8
Xmem_left_ipin_2.sc_dff_compact_3_.sky130_fd_sc_hd__dfrbp_1 mem_left_ipin_2.sc_dff_compact_2_.sky130_fd_sc_hd__dfrbp_1/Q
+ mem_left_ipin_2.sc_dff_compact_4_.sky130_fd_sc_hd__dfrbp_1/D mem_left_ipin_2.sc_dff_compact_3_.sky130_fd_sc_hd__dfrbp_1/Q_N
+ pReset clkbuf_3_0_0_prog_clk/X VGND VPWR sky130_fd_sc_hd__dfrbp_1
XFILLER_37_125 VGND VPWR sky130_fd_sc_hd__decap_12
XANTENNA_mem_left_ipin_0.sc_dff_compact_2_.sky130_fd_sc_hd__dfrbp_1_CLK clkbuf_3_6_0_prog_clk/X
+ VGND VPWR sky130_fd_sc_hd__diode_2
XFILLER_20_29 VGND VPWR sky130_fd_sc_hd__fill_2
X_24_ chany_in_5_ chany_out_5_ VGND VPWR sky130_fd_sc_hd__buf_2
XFILLER_1_86 VGND VPWR sky130_fd_sc_hd__decap_12
XANTENNA_mem_left_ipin_1.sc_dff_compact_3_.sky130_fd_sc_hd__dfrbp_1_CLK clkbuf_3_7_0_prog_clk/X
+ VGND VPWR sky130_fd_sc_hd__diode_2
XFILLER_34_139 VGND VPWR sky130_fd_sc_hd__fill_2
XFILLER_32_3 VGND VPWR sky130_fd_sc_hd__decap_12
XANTENNA_mem_left_ipin_2.sc_dff_compact_4_.sky130_fd_sc_hd__dfrbp_1_CLK clkbuf_3_0_0_prog_clk/X
+ VGND VPWR sky130_fd_sc_hd__diode_2
XANTENNA_mem_left_ipin_3.sc_dff_compact_5_.sky130_fd_sc_hd__dfrbp_1_CLK clkbuf_3_0_0_prog_clk/X
+ VGND VPWR sky130_fd_sc_hd__diode_2
X_07_ _07_/HI right_grid_pin_12_ VGND VPWR sky130_fd_sc_hd__conb_1
XFILLER_33_172 VGND VPWR sky130_fd_sc_hd__decap_8
XPHY_189 VGND VPWR sky130_fd_sc_hd__tapvpwrvgnd_1
XPHY_178 VGND VPWR sky130_fd_sc_hd__tapvpwrvgnd_1
XPHY_167 VGND VPWR sky130_fd_sc_hd__tapvpwrvgnd_1
XPHY_156 VGND VPWR sky130_fd_sc_hd__tapvpwrvgnd_1
XANTENNA_mem_left_ipin_3.sc_dff_compact_0_.sky130_fd_sc_hd__dfrbp_1_RESET_B pReset
+ VGND VPWR sky130_fd_sc_hd__diode_2
XPHY_145 VGND VPWR sky130_fd_sc_hd__tapvpwrvgnd_1
XFILLER_16_128 VGND VPWR sky130_fd_sc_hd__fill_2
XPHY_134 VGND VPWR sky130_fd_sc_hd__tapvpwrvgnd_1
XPHY_123 VGND VPWR sky130_fd_sc_hd__tapvpwrvgnd_1
XPHY_101 VGND VPWR sky130_fd_sc_hd__tapvpwrvgnd_1
XPHY_112 VGND VPWR sky130_fd_sc_hd__tapvpwrvgnd_1
XFILLER_30_120 VGND VPWR sky130_fd_sc_hd__fill_2
XANTENNA_mem_left_ipin_4.sc_dff_compact_2_.sky130_fd_sc_hd__dfrbp_1_D mem_left_ipin_4.sc_dff_compact_1_.sky130_fd_sc_hd__dfrbp_1/Q
+ VGND VPWR sky130_fd_sc_hd__diode_2
XFILLER_13_109 VGND VPWR sky130_fd_sc_hd__fill_1
XPHY_3 VGND VPWR sky130_fd_sc_hd__decap_3
XFILLER_7_74 VGND VPWR sky130_fd_sc_hd__decap_12
XFILLER_29_220 VGND VPWR sky130_fd_sc_hd__fill_1
XFILLER_21_164 VGND VPWR sky130_fd_sc_hd__decap_12
XFILLER_21_120 VGND VPWR sky130_fd_sc_hd__fill_2
XANTENNA_mem_left_ipin_5.sc_dff_compact_1_.sky130_fd_sc_hd__dfrbp_1_RESET_B pReset
+ VGND VPWR sky130_fd_sc_hd__diode_2
XFILLER_12_120 VGND VPWR sky130_fd_sc_hd__fill_2
XFILLER_32_93 VGND VPWR sky130_fd_sc_hd__fill_2
XFILLER_37_27 VGND VPWR sky130_fd_sc_hd__decap_4
XANTENNA_mem_left_ipin_7.sc_dff_compact_2_.sky130_fd_sc_hd__dfrbp_1_RESET_B pReset
+ VGND VPWR sky130_fd_sc_hd__diode_2
XFILLER_32_215 VGND VPWR sky130_fd_sc_hd__decap_6
XFILLER_17_212 VGND VPWR sky130_fd_sc_hd__decap_8
XFILLER_14_215 VGND VPWR sky130_fd_sc_hd__decap_6
XFILLER_13_62 VGND VPWR sky130_fd_sc_hd__fill_2