* NGSPICE file created from cby_2__1_.ext - technology: sky130A

* Black-box entry subcircuit for sky130_fd_sc_hd__fill_1 abstract view
.subckt sky130_fd_sc_hd__fill_1 VGND VPWR
.ends

* Black-box entry subcircuit for sky130_fd_sc_hd__dfrbp_1 abstract view
.subckt sky130_fd_sc_hd__dfrbp_1 D Q Q_N RESET_B CLK VGND VPWR
.ends

* Black-box entry subcircuit for sky130_fd_sc_hd__fill_2 abstract view
.subckt sky130_fd_sc_hd__fill_2 VGND VPWR
.ends

* Black-box entry subcircuit for sky130_fd_sc_hd__decap_12 abstract view
.subckt sky130_fd_sc_hd__decap_12 VGND VPWR
.ends

* Black-box entry subcircuit for sky130_fd_sc_hd__diode_2 abstract view
.subckt sky130_fd_sc_hd__diode_2 DIODE VGND VPWR
.ends

* Black-box entry subcircuit for sky130_fd_sc_hd__decap_4 abstract view
.subckt sky130_fd_sc_hd__decap_4 VGND VPWR
.ends

* Black-box entry subcircuit for sky130_fd_sc_hd__decap_6 abstract view
.subckt sky130_fd_sc_hd__decap_6 VGND VPWR
.ends

* Black-box entry subcircuit for sky130_fd_sc_hd__clkbuf_1 abstract view
.subckt sky130_fd_sc_hd__clkbuf_1 A X VGND VPWR
.ends

* Black-box entry subcircuit for sky130_fd_sc_hd__decap_8 abstract view
.subckt sky130_fd_sc_hd__decap_8 VGND VPWR
.ends

* Black-box entry subcircuit for sky130_fd_sc_hd__tapvpwrvgnd_1 abstract view
.subckt sky130_fd_sc_hd__tapvpwrvgnd_1 VGND VPWR
.ends

* Black-box entry subcircuit for sky130_fd_sc_hd__decap_3 abstract view
.subckt sky130_fd_sc_hd__decap_3 VGND VPWR
.ends

* Black-box entry subcircuit for sky130_fd_sc_hd__buf_2 abstract view
.subckt sky130_fd_sc_hd__buf_2 A X VGND VPWR
.ends

* Black-box entry subcircuit for sky130_fd_sc_hd__conb_1 abstract view
.subckt sky130_fd_sc_hd__conb_1 HI LO VGND VPWR
.ends

* Black-box entry subcircuit for sky130_fd_sc_hd__clkbuf_16 abstract view
.subckt sky130_fd_sc_hd__clkbuf_16 A X VGND VPWR
.ends

.subckt cby_2__1_ chany_in_0_ left_grid_pin_1_ chany_in_14_ chany_in_8_ pReset chany_in_3_
+ chany_in_7_ ccff_head chany_in_2_ right_grid_pin_12_ chany_out_10_ chany_in_12_
+ chany_in_9_ chany_in_16_ right_grid_pin_0_ chany_out_7_ chany_out_0_ chany_in_4_
+ chany_out_4_ chany_out_16_ chany_in_17_ left_grid_pin_5_ right_grid_pin_6_ chany_in_15_
+ prog_clk chany_out_13_ ccff_tail chany_in_13_ right_grid_pin_10_ chany_in_10_ chany_out_17_
+ chany_out_12_ right_grid_pin_8_ right_grid_pin_14_ chany_out_2_ chany_out_11_ chany_out_9_
+ chany_in_11_ chany_in_5_ chany_in_1_ chany_out_15_ chany_in_6_ chany_out_5_ right_grid_pin_2_
+ chany_out_8_ chany_out_1_ left_grid_pin_9_ right_grid_pin_4_ chany_out_14_ chany_out_6_
+ chany_out_3_
XFILLER_22_122 _27_/VGND _27_/VPWR sky130_fd_sc_hd__fill_1
Xmem_left_ipin_4.sc_dff_compact_2_.sky130_fd_sc_hd__dfrbp_1 mem_left_ipin_4.sc_dff_compact_1_.sky130_fd_sc_hd__dfrbp_1/Q
+ mem_left_ipin_4.sc_dff_compact_2_.sky130_fd_sc_hd__dfrbp_1/Q mem_left_ipin_4.sc_dff_compact_2_.sky130_fd_sc_hd__dfrbp_1/Q_N
+ pReset clkbuf_3_1_0_prog_clk/X PHY_35/VGND PHY_33/VPWR sky130_fd_sc_hd__dfrbp_1
XFILLER_3_34 _13_/VGND _13_/VPWR sky130_fd_sc_hd__fill_2
XFILLER_9_159 _21_/VGND _21_/VPWR sky130_fd_sc_hd__decap_12
Xmem_left_ipin_1.sc_dff_compact_3_.sky130_fd_sc_hd__dfrbp_1 mem_left_ipin_1.sc_dff_compact_2_.sky130_fd_sc_hd__dfrbp_1/Q
+ mem_left_ipin_1.sc_dff_compact_3_.sky130_fd_sc_hd__dfrbp_1/Q mem_left_ipin_1.sc_dff_compact_3_.sky130_fd_sc_hd__dfrbp_1/Q_N
+ pReset clkbuf_3_7_0_prog_clk/X PHY_59/VGND _14_/VPWR sky130_fd_sc_hd__dfrbp_1
XANTENNA_mem_left_ipin_7.sc_dff_compact_3_.sky130_fd_sc_hd__dfrbp_1_D mem_left_ipin_7.sc_dff_compact_3_.sky130_fd_sc_hd__dfrbp_1/D
+ PHY_43/VGND _27_/VPWR sky130_fd_sc_hd__diode_2
XFILLER_33_217 _07_/VGND _07_/VPWR sky130_fd_sc_hd__decap_4
XFILLER_6_129 PHY_14/VGND _11_/VPWR sky130_fd_sc_hd__decap_12
XFILLER_10_125 PHY_23/VGND _21_/VPWR sky130_fd_sc_hd__fill_2
XFILLER_12_32 _23_/VGND PHY_25/VPWR sky130_fd_sc_hd__fill_2
XFILLER_5_184 _11_/VGND _11_/VPWR sky130_fd_sc_hd__decap_12
XFILLER_23_42 _27_/VGND PHY_49/VPWR sky130_fd_sc_hd__fill_2
XFILLER_2_176 _13_/VGND _28_/VPWR sky130_fd_sc_hd__decap_12
XFILLER_2_154 _13_/VGND _28_/VPWR sky130_fd_sc_hd__decap_6
XANTENNA_clkbuf_2_1_0_prog_clk_A clkbuf_2_1_0_prog_clk/A _12_/VGND PHY_57/VPWR sky130_fd_sc_hd__diode_2
Xclkbuf_3_4_0_prog_clk clkbuf_3_5_0_prog_clk/A clkbuf_3_4_0_prog_clk/X PHY_35/VGND
+ _25_/VPWR sky130_fd_sc_hd__clkbuf_1
XFILLER_11_220 PHY_23/VGND PHY_25/VPWR sky130_fd_sc_hd__fill_1
XFILLER_29_117 PHY_59/VGND _14_/VPWR sky130_fd_sc_hd__fill_1
XFILLER_29_74 PHY_59/VGND _14_/VPWR sky130_fd_sc_hd__decap_8
XFILLER_20_32 PHY_43/VGND PHY_38/VPWR sky130_fd_sc_hd__fill_2
XFILLER_13_3 _23_/VGND _23_/VPWR sky130_fd_sc_hd__decap_12
XFILLER_6_56 PHY_14/VGND _11_/VPWR sky130_fd_sc_hd__decap_12
XANTENNA_mem_left_ipin_4.sc_dff_compact_0_.sky130_fd_sc_hd__dfrbp_1_CLK clkbuf_3_0_0_prog_clk/X
+ _23_/VGND PHY_25/VPWR sky130_fd_sc_hd__diode_2
XFILLER_31_53 _14_/VGND PHY_65/VPWR sky130_fd_sc_hd__fill_2
XFILLER_31_20 _14_/VGND PHY_65/VPWR sky130_fd_sc_hd__fill_2
XANTENNA_mem_left_ipin_5.sc_dff_compact_1_.sky130_fd_sc_hd__dfrbp_1_CLK clkbuf_3_4_0_prog_clk/X
+ PHY_31/VGND PHY_33/VPWR sky130_fd_sc_hd__diode_2
XFILLER_15_21 PHY_31/VGND PHY_33/VPWR sky130_fd_sc_hd__fill_1
XFILLER_1_208 PHY_2/VGND _28_/VPWR sky130_fd_sc_hd__decap_12
XPHY_192 _07_/VGND PHY_65/VPWR sky130_fd_sc_hd__tapvpwrvgnd_1
XFILLER_31_156 _14_/VGND PHY_65/VPWR sky130_fd_sc_hd__fill_2
XFILLER_31_123 _14_/VGND PHY_65/VPWR sky130_fd_sc_hd__fill_2
XFILLER_31_86 _14_/VGND PHY_65/VPWR sky130_fd_sc_hd__decap_6
XPHY_181 PHY_59/VGND _14_/VPWR sky130_fd_sc_hd__tapvpwrvgnd_1
XPHY_170 _12_/VGND _12_/VPWR sky130_fd_sc_hd__tapvpwrvgnd_1
XANTENNA_mem_left_ipin_7.sc_dff_compact_3_.sky130_fd_sc_hd__dfrbp_1_CLK clkbuf_3_4_0_prog_clk/X
+ PHY_43/VGND _27_/VPWR sky130_fd_sc_hd__diode_2
XANTENNA_mem_left_ipin_6.sc_dff_compact_2_.sky130_fd_sc_hd__dfrbp_1_CLK clkbuf_3_5_0_prog_clk/X
+ _25_/VGND _25_/VPWR sky130_fd_sc_hd__diode_2
XFILLER_13_123 _23_/VGND _23_/VPWR sky130_fd_sc_hd__fill_2
XFILLER_13_112 _23_/VGND _23_/VPWR sky130_fd_sc_hd__fill_2
XFILLER_3_46 _13_/VGND _13_/VPWR sky130_fd_sc_hd__fill_2
XFILLER_36_215 _08_/VGND _08_/VPWR sky130_fd_sc_hd__decap_6
XFILLER_37_63 _08_/VGND PHY_74/VPWR sky130_fd_sc_hd__decap_12
XFILLER_18_215 _25_/VGND _25_/VPWR sky130_fd_sc_hd__decap_6
XFILLER_12_88 _23_/VGND PHY_25/VPWR sky130_fd_sc_hd__decap_4
XFILLER_12_55 _23_/VGND PHY_25/VPWR sky130_fd_sc_hd__fill_2
XFILLER_5_196 _11_/VGND _11_/VPWR sky130_fd_sc_hd__fill_2
XFILLER_23_10 _27_/VGND PHY_49/VPWR sky130_fd_sc_hd__fill_2
XANTENNA_mem_right_ipin_0.sc_dff_compact_4_.sky130_fd_sc_hd__dfrbp_1_RESET_B pReset
+ PHY_59/VGND PHY_57/VPWR sky130_fd_sc_hd__diode_2
XFILLER_23_87 _27_/VGND PHY_49/VPWR sky130_fd_sc_hd__fill_2
XFILLER_2_188 _13_/VGND _28_/VPWR sky130_fd_sc_hd__decap_12
XFILLER_34_64 _18_/VGND _07_/VPWR sky130_fd_sc_hd__fill_2
XFILLER_18_32 _25_/VGND _25_/VPWR sky130_fd_sc_hd__fill_2
XFILLER_28_151 PHY_59/VGND PHY_57/VPWR sky130_fd_sc_hd__fill_2
XFILLER_19_184 _25_/VGND PHY_38/VPWR sky130_fd_sc_hd__decap_12
XFILLER_6_68 PHY_14/VGND _11_/VPWR sky130_fd_sc_hd__decap_12
XFILLER_34_154 _18_/VGND _07_/VPWR sky130_fd_sc_hd__decap_4
XFILLER_15_66 PHY_31/VGND PHY_33/VPWR sky130_fd_sc_hd__fill_2
XPHY_193 _07_/VGND PHY_65/VPWR sky130_fd_sc_hd__tapvpwrvgnd_1
XPHY_182 PHY_59/VGND _14_/VPWR sky130_fd_sc_hd__tapvpwrvgnd_1
XPHY_171 _12_/VGND _12_/VPWR sky130_fd_sc_hd__tapvpwrvgnd_1
XANTENNA_mem_left_ipin_7.sc_dff_compact_0_.sky130_fd_sc_hd__dfrbp_1_RESET_B pReset
+ _27_/VGND PHY_49/VPWR sky130_fd_sc_hd__diode_2
XPHY_160 _27_/VGND PHY_49/VPWR sky130_fd_sc_hd__tapvpwrvgnd_1
XFILLER_16_154 PHY_35/VGND PHY_33/VPWR sky130_fd_sc_hd__decap_12
XFILLER_16_132 PHY_35/VGND PHY_33/VPWR sky130_fd_sc_hd__fill_2
XFILLER_30_190 _14_/VGND _14_/VPWR sky130_fd_sc_hd__decap_8
XFILLER_22_179 _27_/VGND _27_/VPWR sky130_fd_sc_hd__decap_12
XFILLER_26_65 _12_/VGND _12_/VPWR sky130_fd_sc_hd__decap_12
XFILLER_26_32 _12_/VGND _12_/VPWR sky130_fd_sc_hd__fill_2
Xmem_left_ipin_6.sc_dff_compact_0_.sky130_fd_sc_hd__dfrbp_1 mem_left_ipin_5.sc_dff_compact_5_.sky130_fd_sc_hd__dfrbp_1/Q
+ mem_left_ipin_6.sc_dff_compact_0_.sky130_fd_sc_hd__dfrbp_1/Q mem_left_ipin_6.sc_dff_compact_0_.sky130_fd_sc_hd__dfrbp_1/Q_N
+ pReset clkbuf_3_5_0_prog_clk/X PHY_31/VGND PHY_33/VPWR sky130_fd_sc_hd__dfrbp_1
XANTENNA_mem_right_ipin_0.sc_dff_compact_4_.sky130_fd_sc_hd__dfrbp_1_CLK clkbuf_3_3_0_prog_clk/X
+ PHY_59/VGND _14_/VPWR sky130_fd_sc_hd__diode_2
XFILLER_12_190 _23_/VGND PHY_25/VPWR sky130_fd_sc_hd__decap_12
XFILLER_3_58 _13_/VGND _13_/VPWR sky130_fd_sc_hd__decap_3
Xmem_left_ipin_3.sc_dff_compact_1_.sky130_fd_sc_hd__dfrbp_1 mem_left_ipin_3.sc_dff_compact_0_.sky130_fd_sc_hd__dfrbp_1/Q
+ mem_left_ipin_3.sc_dff_compact_1_.sky130_fd_sc_hd__dfrbp_1/Q mem_left_ipin_3.sc_dff_compact_1_.sky130_fd_sc_hd__dfrbp_1/Q_N
+ pReset clkbuf_3_1_0_prog_clk/X _25_/VGND _25_/VPWR sky130_fd_sc_hd__dfrbp_1
XFILLER_10_105 PHY_23/VGND _21_/VPWR sky130_fd_sc_hd__decap_12
XFILLER_37_75 _08_/VGND PHY_74/VPWR sky130_fd_sc_hd__decap_12
XFILLER_15_208 PHY_31/VGND PHY_33/VPWR sky130_fd_sc_hd__decap_12
Xmem_left_ipin_0.sc_dff_compact_2_.sky130_fd_sc_hd__dfrbp_1 mem_left_ipin_0.sc_dff_compact_2_.sky130_fd_sc_hd__dfrbp_1/D
+ mem_left_ipin_0.sc_dff_compact_2_.sky130_fd_sc_hd__dfrbp_1/Q mem_left_ipin_0.sc_dff_compact_2_.sky130_fd_sc_hd__dfrbp_1/Q_N
+ pReset clkbuf_3_6_0_prog_clk/X _18_/VGND _07_/VPWR sky130_fd_sc_hd__dfrbp_1
XFILLER_3_3 _13_/VGND _13_/VPWR sky130_fd_sc_hd__decap_12
XFILLER_0_15 PHY_2/VGND PHY_0/VPWR sky130_fd_sc_hd__decap_12
XFILLER_36_3 _08_/VGND _08_/VPWR sky130_fd_sc_hd__decap_12
XFILLER_34_32 _18_/VGND _07_/VPWR sky130_fd_sc_hd__fill_2
XFILLER_34_21 _18_/VGND _07_/VPWR sky130_fd_sc_hd__fill_2
XFILLER_18_11 _25_/VGND _25_/VPWR sky130_fd_sc_hd__decap_3
Xmem_right_ipin_0.sc_dff_compact_3_.sky130_fd_sc_hd__dfrbp_1 mem_right_ipin_0.sc_dff_compact_2_.sky130_fd_sc_hd__dfrbp_1/Q
+ mem_right_ipin_0.sc_dff_compact_4_.sky130_fd_sc_hd__dfrbp_1/D mem_right_ipin_0.sc_dff_compact_3_.sky130_fd_sc_hd__dfrbp_1/Q_N
+ pReset clkbuf_3_2_0_prog_clk/X _12_/VGND PHY_57/VPWR sky130_fd_sc_hd__dfrbp_1
XFILLER_22_9 _27_/VGND _27_/VPWR sky130_fd_sc_hd__decap_3
XANTENNA_clkbuf_1_0_0_prog_clk_A clkbuf_0_prog_clk/X _27_/VGND PHY_49/VPWR sky130_fd_sc_hd__diode_2
XFILLER_29_43 PHY_59/VGND _14_/VPWR sky130_fd_sc_hd__fill_2
XFILLER_34_177 _18_/VGND _07_/VPWR sky130_fd_sc_hd__decap_8
XFILLER_34_144 _18_/VGND _07_/VPWR sky130_fd_sc_hd__decap_8
XFILLER_19_196 _25_/VGND PHY_38/VPWR sky130_fd_sc_hd__decap_12
XFILLER_19_152 _25_/VGND PHY_38/VPWR sky130_fd_sc_hd__decap_12
XFILLER_31_99 _14_/VGND PHY_65/VPWR sky130_fd_sc_hd__fill_2
XFILLER_25_111 PHY_51/VGND _12_/VPWR sky130_fd_sc_hd__decap_8
XFILLER_16_166 PHY_35/VGND PHY_33/VPWR sky130_fd_sc_hd__decap_12
XFILLER_16_144 PHY_35/VGND PHY_33/VPWR sky130_fd_sc_hd__decap_8
XFILLER_15_89 PHY_31/VGND PHY_33/VPWR sky130_fd_sc_hd__fill_2
XPHY_194 _07_/VGND PHY_65/VPWR sky130_fd_sc_hd__tapvpwrvgnd_1
XFILLER_31_103 _14_/VGND PHY_65/VPWR sky130_fd_sc_hd__decap_8
XPHY_183 PHY_59/VGND _14_/VPWR sky130_fd_sc_hd__tapvpwrvgnd_1
XPHY_172 _12_/VGND _12_/VPWR sky130_fd_sc_hd__tapvpwrvgnd_1
Xclkbuf_2_1_0_prog_clk clkbuf_2_1_0_prog_clk/A clkbuf_3_3_0_prog_clk/A _12_/VGND PHY_57/VPWR
+ sky130_fd_sc_hd__clkbuf_1
XPHY_161 _27_/VGND PHY_49/VPWR sky130_fd_sc_hd__tapvpwrvgnd_1
XFILLER_22_125 _27_/VGND _27_/VPWR sky130_fd_sc_hd__fill_2
XPHY_150 PHY_43/VGND PHY_38/VPWR sky130_fd_sc_hd__tapvpwrvgnd_1
XFILLER_26_77 _12_/VGND _12_/VPWR sky130_fd_sc_hd__decap_12
XFILLER_13_103 _23_/VGND _23_/VPWR sky130_fd_sc_hd__decap_6
XFILLER_3_15 _13_/VGND _13_/VPWR sky130_fd_sc_hd__decap_12
XFILLER_10_117 PHY_23/VGND _21_/VPWR sky130_fd_sc_hd__fill_2
XFILLER_37_87 _08_/VGND PHY_74/VPWR sky130_fd_sc_hd__decap_6
XFILLER_37_32 _08_/VGND PHY_74/VPWR sky130_fd_sc_hd__decap_12
XFILLER_5_110 _11_/VGND _11_/VPWR sky130_fd_sc_hd__decap_12
XFILLER_4_80 _11_/VGND _13_/VPWR sky130_fd_sc_hd__decap_12
XANTENNA__12__A chany_in_10_ PHY_51/VGND _12_/VPWR sky130_fd_sc_hd__diode_2
XFILLER_23_220 _27_/VGND PHY_49/VPWR sky130_fd_sc_hd__fill_1
XFILLER_0_27 PHY_2/VGND PHY_0/VPWR sky130_fd_sc_hd__decap_4
XFILLER_29_3 PHY_59/VGND _14_/VPWR sky130_fd_sc_hd__decap_8
XFILLER_20_13 PHY_43/VGND PHY_38/VPWR sky130_fd_sc_hd__fill_2
XANTENNA_mem_left_ipin_6.sc_dff_compact_0_.sky130_fd_sc_hd__dfrbp_1_RESET_B pReset
+ PHY_31/VGND PHY_33/VPWR sky130_fd_sc_hd__diode_2
Xclkbuf_3_3_0_prog_clk clkbuf_3_3_0_prog_clk/A clkbuf_3_3_0_prog_clk/X _14_/VGND _14_/VPWR
+ sky130_fd_sc_hd__clkbuf_1
XFILLER_29_88 PHY_59/VGND _14_/VPWR sky130_fd_sc_hd__fill_2
XFILLER_29_11 PHY_59/VGND _14_/VPWR sky130_fd_sc_hd__fill_1
XFILLER_20_68 PHY_43/VGND PHY_38/VPWR sky130_fd_sc_hd__decap_12
XFILLER_20_57 PHY_43/VGND PHY_38/VPWR sky130_fd_sc_hd__decap_4
XFILLER_6_15 PHY_14/VGND _11_/VPWR sky130_fd_sc_hd__decap_12
XFILLER_19_164 _25_/VGND PHY_38/VPWR sky130_fd_sc_hd__decap_12
XFILLER_19_120 _25_/VGND PHY_38/VPWR sky130_fd_sc_hd__fill_2
XFILLER_31_45 _14_/VGND PHY_65/VPWR sky130_fd_sc_hd__fill_2
XFILLER_25_123 PHY_51/VGND _12_/VPWR sky130_fd_sc_hd__decap_12
XFILLER_25_101 PHY_51/VGND _12_/VPWR sky130_fd_sc_hd__decap_4
XFILLER_15_24 PHY_31/VGND PHY_33/VPWR sky130_fd_sc_hd__fill_2
XFILLER_0_211 PHY_2/VGND PHY_0/VPWR sky130_fd_sc_hd__decap_6
XANTENNA__20__A chany_in_1_ _13_/VGND _13_/VPWR sky130_fd_sc_hd__diode_2
XPHY_195 _07_/VGND _07_/VPWR sky130_fd_sc_hd__tapvpwrvgnd_1
XFILLER_31_148 _14_/VGND PHY_65/VPWR sky130_fd_sc_hd__decap_6
XPHY_184 _14_/VGND _14_/VPWR sky130_fd_sc_hd__tapvpwrvgnd_1
XPHY_173 _12_/VGND _12_/VPWR sky130_fd_sc_hd__tapvpwrvgnd_1
XPHY_162 _27_/VGND PHY_49/VPWR sky130_fd_sc_hd__tapvpwrvgnd_1
Xmem_left_ipin_7.sc_dff_compact_4_.sky130_fd_sc_hd__dfrbp_1 mem_left_ipin_7.sc_dff_compact_3_.sky130_fd_sc_hd__dfrbp_1/Q
+ mem_left_ipin_7.sc_dff_compact_5_.sky130_fd_sc_hd__dfrbp_1/D mem_left_ipin_7.sc_dff_compact_4_.sky130_fd_sc_hd__dfrbp_1/Q_N
+ pReset clkbuf_3_1_0_prog_clk/X PHY_43/VGND _27_/VPWR sky130_fd_sc_hd__dfrbp_1
XPHY_151 PHY_43/VGND PHY_38/VPWR sky130_fd_sc_hd__tapvpwrvgnd_1
XPHY_140 PHY_35/VGND _25_/VPWR sky130_fd_sc_hd__tapvpwrvgnd_1
XFILLER_16_178 PHY_35/VGND PHY_33/VPWR sky130_fd_sc_hd__decap_12
XFILLER_11_3 PHY_23/VGND PHY_25/VPWR sky130_fd_sc_hd__decap_12
XANTENNA_mem_left_ipin_0.sc_dff_compact_3_.sky130_fd_sc_hd__dfrbp_1_CLK clkbuf_3_6_0_prog_clk/X
+ _14_/VGND PHY_65/VPWR sky130_fd_sc_hd__diode_2
XFILLER_26_89 _12_/VGND _12_/VPWR sky130_fd_sc_hd__decap_3
XANTENNA_mem_left_ipin_1.sc_dff_compact_4_.sky130_fd_sc_hd__dfrbp_1_CLK clkbuf_3_7_0_prog_clk/X
+ _12_/VGND PHY_57/VPWR sky130_fd_sc_hd__diode_2
XANTENNA_mem_left_ipin_2.sc_dff_compact_5_.sky130_fd_sc_hd__dfrbp_1_CLK clkbuf_3_0_0_prog_clk/X
+ _25_/VGND PHY_38/VPWR sky130_fd_sc_hd__diode_2
XFILLER_3_38 _13_/VGND _13_/VPWR sky130_fd_sc_hd__decap_4
XFILLER_3_27 _13_/VGND _13_/VPWR sky130_fd_sc_hd__decap_3
XANTENNA__15__A chany_in_13_ _13_/VGND _13_/VPWR sky130_fd_sc_hd__diode_2
Xmem_left_ipin_4.sc_dff_compact_5_.sky130_fd_sc_hd__dfrbp_1 mem_left_ipin_4.sc_dff_compact_4_.sky130_fd_sc_hd__dfrbp_1/Q
+ mem_left_ipin_4.sc_dff_compact_5_.sky130_fd_sc_hd__dfrbp_1/Q mem_left_ipin_4.sc_dff_compact_5_.sky130_fd_sc_hd__dfrbp_1/Q_N
+ pReset clkbuf_3_4_0_prog_clk/X PHY_23/VGND PHY_25/VPWR sky130_fd_sc_hd__dfrbp_1
XFILLER_8_141 _21_/VGND PHY_17/VPWR sky130_fd_sc_hd__decap_12
XFILLER_10_129 PHY_23/VGND _21_/VPWR sky130_fd_sc_hd__fill_2
XFILLER_12_36 _23_/VGND PHY_25/VPWR sky130_fd_sc_hd__decap_12
XFILLER_37_44 _08_/VGND PHY_74/VPWR sky130_fd_sc_hd__decap_12
XFILLER_23_57 _27_/VGND PHY_49/VPWR sky130_fd_sc_hd__decap_4
XFILLER_23_46 _27_/VGND PHY_49/VPWR sky130_fd_sc_hd__decap_4
XFILLER_23_35 _27_/VGND PHY_49/VPWR sky130_fd_sc_hd__decap_4
Xmem_left_ipin_2.sc_dff_compact_0_.sky130_fd_sc_hd__dfrbp_1 mem_left_ipin_1.sc_dff_compact_5_.sky130_fd_sc_hd__dfrbp_1/Q
+ mem_left_ipin_2.sc_dff_compact_1_.sky130_fd_sc_hd__dfrbp_1/D mem_left_ipin_2.sc_dff_compact_0_.sky130_fd_sc_hd__dfrbp_1/Q_N
+ pReset clkbuf_3_6_0_prog_clk/X _12_/VGND _12_/VPWR sky130_fd_sc_hd__dfrbp_1
XFILLER_9_15 _21_/VGND _21_/VPWR sky130_fd_sc_hd__decap_12
XFILLER_9_59 _21_/VGND _21_/VPWR sky130_fd_sc_hd__fill_2
XFILLER_20_202 PHY_43/VGND PHY_38/VPWR sky130_fd_sc_hd__decap_12
XFILLER_18_57 _25_/VGND _25_/VPWR sky130_fd_sc_hd__decap_12
XFILLER_18_24 _25_/VGND _25_/VPWR sky130_fd_sc_hd__fill_2
XANTENNA__23__A chany_in_4_ _23_/VGND _23_/VPWR sky130_fd_sc_hd__diode_2
XFILLER_37_187 _08_/VGND PHY_74/VPWR sky130_fd_sc_hd__decap_12
Xmem_right_ipin_2.sc_dff_compact_1_.sky130_fd_sc_hd__dfrbp_1 mem_right_ipin_2.sc_dff_compact_0_.sky130_fd_sc_hd__dfrbp_1/Q
+ ccff_tail mem_right_ipin_2.sc_dff_compact_1_.sky130_fd_sc_hd__dfrbp_1/Q_N pReset
+ clkbuf_3_2_0_prog_clk/X _18_/VGND _07_/VPWR sky130_fd_sc_hd__dfrbp_1
X_28_ chany_in_9_ chany_out_9_ _13_/VGND _28_/VPWR sky130_fd_sc_hd__buf_2
XANTENNA__18__A chany_in_16_ _18_/VGND _08_/VPWR sky130_fd_sc_hd__diode_2
XFILLER_28_154 PHY_59/VGND PHY_57/VPWR sky130_fd_sc_hd__decap_12
XFILLER_28_143 PHY_59/VGND PHY_57/VPWR sky130_fd_sc_hd__decap_8
XFILLER_28_110 PHY_59/VGND PHY_57/VPWR sky130_fd_sc_hd__fill_2
XFILLER_19_176 _25_/VGND PHY_38/VPWR sky130_fd_sc_hd__decap_6
XFILLER_6_27 PHY_14/VGND _11_/VPWR sky130_fd_sc_hd__decap_4
XANTENNA_mem_left_ipin_0.sc_dff_compact_1_.sky130_fd_sc_hd__dfrbp_1_D mem_left_ipin_0.sc_dff_compact_0_.sky130_fd_sc_hd__dfrbp_1/Q
+ _07_/VGND _07_/VPWR sky130_fd_sc_hd__diode_2
XFILLER_31_57 _14_/VGND PHY_65/VPWR sky130_fd_sc_hd__decap_4
XFILLER_25_135 PHY_51/VGND _12_/VPWR sky130_fd_sc_hd__decap_12
XANTENNA_mem_right_ipin_0.sc_dff_compact_1_.sky130_fd_sc_hd__dfrbp_1_D mem_right_ipin_0.sc_dff_compact_1_.sky130_fd_sc_hd__dfrbp_1/D
+ PHY_51/VGND PHY_49/VPWR sky130_fd_sc_hd__diode_2
XPHY_196 _07_/VGND _07_/VPWR sky130_fd_sc_hd__tapvpwrvgnd_1
XFILLER_31_116 _14_/VGND PHY_65/VPWR sky130_fd_sc_hd__fill_2
XPHY_185 _14_/VGND _14_/VPWR sky130_fd_sc_hd__tapvpwrvgnd_1
XPHY_174 _12_/VGND PHY_57/VPWR sky130_fd_sc_hd__tapvpwrvgnd_1
XFILLER_24_190 PHY_51/VGND PHY_49/VPWR sky130_fd_sc_hd__decap_12
XPHY_163 PHY_51/VGND PHY_49/VPWR sky130_fd_sc_hd__tapvpwrvgnd_1
XPHY_152 PHY_43/VGND PHY_38/VPWR sky130_fd_sc_hd__tapvpwrvgnd_1
XPHY_141 PHY_35/VGND _25_/VPWR sky130_fd_sc_hd__tapvpwrvgnd_1
XPHY_130 PHY_31/VGND _23_/VPWR sky130_fd_sc_hd__tapvpwrvgnd_1
XANTENNA_mem_right_ipin_0.sc_dff_compact_5_.sky130_fd_sc_hd__dfrbp_1_RESET_B pReset
+ PHY_59/VGND _14_/VPWR sky130_fd_sc_hd__diode_2
XFILLER_26_57 _12_/VGND _12_/VPWR sky130_fd_sc_hd__decap_6
XFILLER_21_182 PHY_43/VGND _27_/VPWR sky130_fd_sc_hd__fill_1
XFILLER_21_160 PHY_43/VGND _27_/VPWR sky130_fd_sc_hd__fill_2
XFILLER_13_127 _23_/VGND _23_/VPWR sky130_fd_sc_hd__fill_2
XFILLER_13_116 _23_/VGND _23_/VPWR sky130_fd_sc_hd__fill_2
XFILLER_27_208 _12_/VGND PHY_57/VPWR sky130_fd_sc_hd__decap_12
XFILLER_37_56 _08_/VGND PHY_74/VPWR sky130_fd_sc_hd__decap_6
XANTENNA__26__A chany_in_7_ _13_/VGND _13_/VPWR sky130_fd_sc_hd__diode_2
XFILLER_12_15 _23_/VGND PHY_25/VPWR sky130_fd_sc_hd__decap_12
XFILLER_12_48 _23_/VGND PHY_25/VPWR sky130_fd_sc_hd__decap_4
XFILLER_12_59 _23_/VGND PHY_25/VPWR sky130_fd_sc_hd__fill_2
XFILLER_32_211 _07_/VGND PHY_65/VPWR sky130_fd_sc_hd__decap_3
XFILLER_5_123 _11_/VGND _11_/VPWR sky130_fd_sc_hd__decap_12
XFILLER_4_93 _11_/VGND _13_/VPWR sky130_fd_sc_hd__decap_12
XANTENNA_mem_left_ipin_5.sc_dff_compact_0_.sky130_fd_sc_hd__dfrbp_1_RESET_B pReset
+ PHY_31/VGND PHY_33/VPWR sky130_fd_sc_hd__diode_2
XFILLER_13_91 _23_/VGND _23_/VPWR sky130_fd_sc_hd__decap_12
XFILLER_9_27 _21_/VGND _21_/VPWR sky130_fd_sc_hd__decap_12
XANTENNA_mem_left_ipin_0.sc_dff_compact_4_.sky130_fd_sc_hd__dfrbp_1_D mem_left_ipin_0.sc_dff_compact_4_.sky130_fd_sc_hd__dfrbp_1/D
+ _18_/VGND _08_/VPWR sky130_fd_sc_hd__diode_2
XANTENNA_mem_left_ipin_5.sc_dff_compact_0_.sky130_fd_sc_hd__dfrbp_1_CLK clkbuf_3_4_0_prog_clk/X
+ PHY_31/VGND _23_/VPWR sky130_fd_sc_hd__diode_2
XFILLER_34_68 _18_/VGND _07_/VPWR sky130_fd_sc_hd__decap_12
XFILLER_34_57 _18_/VGND _07_/VPWR sky130_fd_sc_hd__decap_4
XANTENNA_clkbuf_3_3_0_prog_clk_A clkbuf_3_3_0_prog_clk/A _14_/VGND PHY_65/VPWR sky130_fd_sc_hd__diode_2
XANTENNA_mem_right_ipin_0.sc_dff_compact_4_.sky130_fd_sc_hd__dfrbp_1_D mem_right_ipin_0.sc_dff_compact_4_.sky130_fd_sc_hd__dfrbp_1/D
+ PHY_59/VGND _14_/VPWR sky130_fd_sc_hd__diode_2
XANTENNA_mem_left_ipin_7.sc_dff_compact_1_.sky130_fd_sc_hd__dfrbp_1_RESET_B pReset
+ PHY_51/VGND _12_/VPWR sky130_fd_sc_hd__diode_2
XFILLER_18_69 _25_/VGND _25_/VPWR sky130_fd_sc_hd__decap_12
XANTENNA_mem_left_ipin_6.sc_dff_compact_1_.sky130_fd_sc_hd__dfrbp_1_CLK clkbuf_3_4_0_prog_clk/X
+ PHY_35/VGND PHY_33/VPWR sky130_fd_sc_hd__diode_2
XFILLER_1_3 PHY_2/VGND _28_/VPWR sky130_fd_sc_hd__decap_12
XFILLER_37_199 _08_/VGND PHY_74/VPWR sky130_fd_sc_hd__decap_12
XFILLER_34_3 _18_/VGND _07_/VPWR sky130_fd_sc_hd__decap_12
XFILLER_24_90 PHY_51/VGND PHY_49/VPWR sky130_fd_sc_hd__fill_2
X_27_ chany_in_8_ chany_out_8_ _27_/VGND _27_/VPWR sky130_fd_sc_hd__buf_2
XANTENNA_mem_left_ipin_7.sc_dff_compact_2_.sky130_fd_sc_hd__dfrbp_1_CLK clkbuf_3_4_0_prog_clk/X
+ PHY_43/VGND PHY_38/VPWR sky130_fd_sc_hd__diode_2
XFILLER_28_166 PHY_59/VGND PHY_57/VPWR sky130_fd_sc_hd__decap_12
XFILLER_20_9 PHY_43/VGND PHY_38/VPWR sky130_fd_sc_hd__fill_2
XFILLER_33_180 _07_/VGND _07_/VPWR sky130_fd_sc_hd__decap_3
XFILLER_25_147 PHY_51/VGND _12_/VPWR sky130_fd_sc_hd__decap_12
XFILLER_15_59 PHY_31/VGND PHY_33/VPWR sky130_fd_sc_hd__fill_2
XFILLER_15_15 PHY_31/VGND PHY_33/VPWR sky130_fd_sc_hd__decap_6
XPHY_197 _07_/VGND _07_/VPWR sky130_fd_sc_hd__tapvpwrvgnd_1
XPHY_186 _14_/VGND _14_/VPWR sky130_fd_sc_hd__tapvpwrvgnd_1
XPHY_175 _12_/VGND PHY_57/VPWR sky130_fd_sc_hd__tapvpwrvgnd_1
XPHY_164 PHY_51/VGND PHY_49/VPWR sky130_fd_sc_hd__tapvpwrvgnd_1
XPHY_153 PHY_43/VGND _27_/VPWR sky130_fd_sc_hd__tapvpwrvgnd_1
XPHY_142 _25_/VGND _25_/VPWR sky130_fd_sc_hd__tapvpwrvgnd_1
XFILLER_16_136 PHY_35/VGND PHY_33/VPWR sky130_fd_sc_hd__fill_2
XFILLER_16_103 PHY_35/VGND PHY_33/VPWR sky130_fd_sc_hd__fill_2
XPHY_131 PHY_31/VGND _23_/VPWR sky130_fd_sc_hd__tapvpwrvgnd_1
XPHY_120 PHY_23/VGND PHY_25/VPWR sky130_fd_sc_hd__tapvpwrvgnd_1
XPHY_0 PHY_2/VGND PHY_0/VPWR sky130_fd_sc_hd__decap_3
XANTENNA_mem_left_ipin_1.sc_dff_compact_2_.sky130_fd_sc_hd__dfrbp_1_D mem_left_ipin_1.sc_dff_compact_1_.sky130_fd_sc_hd__dfrbp_1/Q
+ _14_/VGND _14_/VPWR sky130_fd_sc_hd__diode_2
XFILLER_32_90 _07_/VGND PHY_65/VPWR sky130_fd_sc_hd__fill_2
XFILLER_8_154 _21_/VGND PHY_17/VPWR sky130_fd_sc_hd__decap_12
Xmem_left_ipin_6.sc_dff_compact_3_.sky130_fd_sc_hd__dfrbp_1 mem_left_ipin_6.sc_dff_compact_2_.sky130_fd_sc_hd__dfrbp_1/Q
+ mem_left_ipin_6.sc_dff_compact_4_.sky130_fd_sc_hd__dfrbp_1/D mem_left_ipin_6.sc_dff_compact_3_.sky130_fd_sc_hd__dfrbp_1/Q_N
+ pReset clkbuf_3_5_0_prog_clk/X _25_/VGND PHY_38/VPWR sky130_fd_sc_hd__dfrbp_1
XFILLER_12_27 _23_/VGND PHY_25/VPWR sky130_fd_sc_hd__decap_4
Xclkbuf_2_0_0_prog_clk clkbuf_2_1_0_prog_clk/A clkbuf_2_0_0_prog_clk/X PHY_43/VGND
+ _27_/VPWR sky130_fd_sc_hd__clkbuf_1
XFILLER_17_220 PHY_35/VGND _25_/VPWR sky130_fd_sc_hd__fill_1
XFILLER_5_135 _11_/VGND _11_/VPWR sky130_fd_sc_hd__decap_12
XFILLER_4_190 _11_/VGND _13_/VPWR sky130_fd_sc_hd__decap_12
Xmem_left_ipin_3.sc_dff_compact_4_.sky130_fd_sc_hd__dfrbp_1 mem_left_ipin_3.sc_dff_compact_3_.sky130_fd_sc_hd__dfrbp_1/Q
+ mem_left_ipin_3.sc_dff_compact_5_.sky130_fd_sc_hd__dfrbp_1/D mem_left_ipin_3.sc_dff_compact_4_.sky130_fd_sc_hd__dfrbp_1/Q_N
+ pReset clkbuf_3_0_0_prog_clk/X PHY_23/VGND PHY_25/VPWR sky130_fd_sc_hd__dfrbp_1
XFILLER_2_105 _13_/VGND _28_/VPWR sky130_fd_sc_hd__decap_12
XFILLER_9_39 _21_/VGND _21_/VPWR sky130_fd_sc_hd__decap_12
Xmem_left_ipin_0.sc_dff_compact_5_.sky130_fd_sc_hd__dfrbp_1 mem_left_ipin_0.sc_dff_compact_4_.sky130_fd_sc_hd__dfrbp_1/Q
+ mem_left_ipin_0.sc_dff_compact_5_.sky130_fd_sc_hd__dfrbp_1/Q mem_left_ipin_0.sc_dff_compact_5_.sky130_fd_sc_hd__dfrbp_1/Q_N
+ pReset clkbuf_3_7_0_prog_clk/X _07_/VGND _07_/VPWR sky130_fd_sc_hd__dfrbp_1
XFILLER_20_215 PHY_43/VGND PHY_38/VPWR sky130_fd_sc_hd__decap_6
XFILLER_1_182 PHY_2/VGND _28_/VPWR sky130_fd_sc_hd__fill_1
XFILLER_34_25 _18_/VGND _07_/VPWR sky130_fd_sc_hd__fill_2
XANTENNA_mem_left_ipin_2.sc_dff_compact_0_.sky130_fd_sc_hd__dfrbp_1_D mem_left_ipin_1.sc_dff_compact_5_.sky130_fd_sc_hd__dfrbp_1/Q
+ PHY_51/VGND _12_/VPWR sky130_fd_sc_hd__diode_2
XFILLER_7_208 PHY_14/VGND PHY_17/VPWR sky130_fd_sc_hd__decap_12
XANTENNA_mem_right_ipin_2.sc_dff_compact_0_.sky130_fd_sc_hd__dfrbp_1_D mem_right_ipin_2.sc_dff_compact_0_.sky130_fd_sc_hd__dfrbp_1/D
+ _07_/VGND PHY_65/VPWR sky130_fd_sc_hd__diode_2
XFILLER_27_3 _12_/VGND PHY_57/VPWR sky130_fd_sc_hd__decap_6
XFILLER_37_156 _08_/VGND PHY_74/VPWR sky130_fd_sc_hd__decap_12
XFILLER_29_47 PHY_59/VGND _14_/VPWR sky130_fd_sc_hd__fill_2
XFILLER_29_14 PHY_59/VGND _14_/VPWR sky130_fd_sc_hd__fill_2
X_26_ chany_in_7_ chany_out_7_ _13_/VGND _13_/VPWR sky130_fd_sc_hd__buf_2
XFILLER_1_62 PHY_2/VGND _28_/VPWR sky130_fd_sc_hd__decap_12
XFILLER_1_51 PHY_2/VGND _28_/VPWR sky130_fd_sc_hd__decap_8
XANTENNA_mem_left_ipin_1.sc_dff_compact_5_.sky130_fd_sc_hd__dfrbp_1_D mem_left_ipin_1.sc_dff_compact_4_.sky130_fd_sc_hd__dfrbp_1/Q
+ PHY_59/VGND _14_/VPWR sky130_fd_sc_hd__diode_2
XFILLER_28_178 PHY_59/VGND PHY_57/VPWR sky130_fd_sc_hd__decap_12
XFILLER_19_123 _25_/VGND PHY_38/VPWR sky130_fd_sc_hd__fill_2
XFILLER_10_60 PHY_23/VGND _21_/VPWR sky130_fd_sc_hd__decap_12
XFILLER_10_93 PHY_23/VGND _21_/VPWR sky130_fd_sc_hd__decap_12
X_09_ _09_/HI right_grid_pin_2_ _18_/VGND _07_/VPWR sky130_fd_sc_hd__conb_1
XANTENNA_mem_right_ipin_0.sc_dff_compact_3_.sky130_fd_sc_hd__dfrbp_1_CLK clkbuf_3_2_0_prog_clk/X
+ _12_/VGND PHY_57/VPWR sky130_fd_sc_hd__diode_2
XFILLER_25_159 PHY_51/VGND _12_/VPWR sky130_fd_sc_hd__decap_12
XPHY_198 _18_/VGND _07_/VPWR sky130_fd_sc_hd__tapvpwrvgnd_1
XFILLER_31_15 _14_/VGND PHY_65/VPWR sky130_fd_sc_hd__decap_3
Xmem_right_ipin_1.sc_dff_compact_0_.sky130_fd_sc_hd__dfrbp_1 mem_right_ipin_1.sc_dff_compact_0_.sky130_fd_sc_hd__dfrbp_1/D
+ mem_right_ipin_1.sc_dff_compact_1_.sky130_fd_sc_hd__dfrbp_1/D mem_right_ipin_1.sc_dff_compact_0_.sky130_fd_sc_hd__dfrbp_1/Q_N
+ pReset clkbuf_3_2_0_prog_clk/X _14_/VGND PHY_65/VPWR sky130_fd_sc_hd__dfrbp_1
XPHY_187 _14_/VGND _14_/VPWR sky130_fd_sc_hd__tapvpwrvgnd_1
XPHY_176 _12_/VGND PHY_57/VPWR sky130_fd_sc_hd__tapvpwrvgnd_1
XPHY_165 PHY_51/VGND PHY_49/VPWR sky130_fd_sc_hd__tapvpwrvgnd_1
XPHY_154 PHY_43/VGND _27_/VPWR sky130_fd_sc_hd__tapvpwrvgnd_1
XPHY_143 _25_/VGND _25_/VPWR sky130_fd_sc_hd__tapvpwrvgnd_1
XPHY_132 PHY_31/VGND PHY_33/VPWR sky130_fd_sc_hd__tapvpwrvgnd_1
XPHY_110 _21_/VGND PHY_17/VPWR sky130_fd_sc_hd__tapvpwrvgnd_1
XPHY_121 _23_/VGND PHY_25/VPWR sky130_fd_sc_hd__tapvpwrvgnd_1
XFILLER_22_129 _27_/VGND _27_/VPWR sky130_fd_sc_hd__decap_12
XFILLER_22_118 _27_/VGND _27_/VPWR sky130_fd_sc_hd__decap_4
XPHY_1 PHY_2/VGND PHY_0/VPWR sky130_fd_sc_hd__decap_3
Xclkbuf_3_2_0_prog_clk clkbuf_3_3_0_prog_clk/A clkbuf_3_2_0_prog_clk/X PHY_59/VGND
+ PHY_57/VPWR sky130_fd_sc_hd__clkbuf_1
XFILLER_26_15 _12_/VGND _12_/VPWR sky130_fd_sc_hd__fill_2
XFILLER_21_184 PHY_43/VGND _27_/VPWR sky130_fd_sc_hd__decap_12
XFILLER_8_166 _21_/VGND PHY_17/VPWR sky130_fd_sc_hd__decap_12
XANTENNA_mem_left_ipin_4.sc_dff_compact_0_.sky130_fd_sc_hd__dfrbp_1_RESET_B pReset
+ _23_/VGND _23_/VPWR sky130_fd_sc_hd__diode_2
XANTENNA_mem_left_ipin_2.sc_dff_compact_3_.sky130_fd_sc_hd__dfrbp_1_D mem_left_ipin_2.sc_dff_compact_2_.sky130_fd_sc_hd__dfrbp_1/Q
+ PHY_43/VGND _27_/VPWR sky130_fd_sc_hd__diode_2
XFILLER_5_147 _11_/VGND _11_/VPWR sky130_fd_sc_hd__decap_12
XANTENNA_mem_left_ipin_6.sc_dff_compact_1_.sky130_fd_sc_hd__dfrbp_1_RESET_B pReset
+ PHY_35/VGND _25_/VPWR sky130_fd_sc_hd__diode_2
XFILLER_14_202 PHY_31/VGND _23_/VPWR sky130_fd_sc_hd__decap_12
XFILLER_2_117 _13_/VGND _28_/VPWR sky130_fd_sc_hd__decap_12
XFILLER_34_15 _18_/VGND _07_/VPWR sky130_fd_sc_hd__decap_3
XFILLER_18_16 _25_/VGND _25_/VPWR sky130_fd_sc_hd__decap_6
XFILLER_37_168 _08_/VGND PHY_74/VPWR sky130_fd_sc_hd__decap_12
XFILLER_20_17 PHY_43/VGND PHY_38/VPWR sky130_fd_sc_hd__decap_12
X_25_ chany_in_6_ chany_out_6_ _25_/VGND _25_/VPWR sky130_fd_sc_hd__buf_2
XFILLER_1_74 PHY_2/VGND _28_/VPWR sky130_fd_sc_hd__decap_12
XFILLER_36_190 _08_/VGND _08_/VPWR sky130_fd_sc_hd__decap_8
XFILLER_29_59 PHY_59/VGND _14_/VPWR sky130_fd_sc_hd__fill_2
XFILLER_28_135 PHY_59/VGND PHY_57/VPWR sky130_fd_sc_hd__fill_2
XANTENNA_mem_left_ipin_3.sc_dff_compact_1_.sky130_fd_sc_hd__dfrbp_1_D mem_left_ipin_3.sc_dff_compact_0_.sky130_fd_sc_hd__dfrbp_1/Q
+ PHY_35/VGND PHY_33/VPWR sky130_fd_sc_hd__diode_2
XFILLER_10_72 PHY_23/VGND _21_/VPWR sky130_fd_sc_hd__decap_12
X_08_ _08_/HI right_grid_pin_14_ _08_/VGND _08_/VPWR sky130_fd_sc_hd__conb_1
XFILLER_34_127 _18_/VGND _07_/VPWR sky130_fd_sc_hd__decap_12
XANTENNA_clkbuf_2_2_0_prog_clk_A clkbuf_2_3_0_prog_clk/A PHY_43/VGND PHY_38/VPWR sky130_fd_sc_hd__diode_2
XFILLER_19_81 _25_/VGND PHY_38/VPWR sky130_fd_sc_hd__fill_2
XFILLER_33_160 _07_/VGND _07_/VPWR sky130_fd_sc_hd__decap_12
XFILLER_31_49 _14_/VGND PHY_65/VPWR sky130_fd_sc_hd__fill_2
XFILLER_18_190 _25_/VGND _25_/VPWR sky130_fd_sc_hd__decap_8
XFILLER_15_28 PHY_31/VGND PHY_33/VPWR sky130_fd_sc_hd__fill_2
XPHY_100 PHY_14/VGND _11_/VPWR sky130_fd_sc_hd__tapvpwrvgnd_1
XPHY_199 _18_/VGND _07_/VPWR sky130_fd_sc_hd__tapvpwrvgnd_1
XPHY_188 _14_/VGND PHY_65/VPWR sky130_fd_sc_hd__tapvpwrvgnd_1
XPHY_177 PHY_59/VGND PHY_57/VPWR sky130_fd_sc_hd__tapvpwrvgnd_1
XPHY_166 PHY_51/VGND PHY_49/VPWR sky130_fd_sc_hd__tapvpwrvgnd_1
XPHY_155 PHY_43/VGND _27_/VPWR sky130_fd_sc_hd__tapvpwrvgnd_1
XPHY_144 _25_/VGND _25_/VPWR sky130_fd_sc_hd__tapvpwrvgnd_1
XPHY_133 PHY_31/VGND PHY_33/VPWR sky130_fd_sc_hd__tapvpwrvgnd_1
XPHY_2 PHY_2/VGND _28_/VPWR sky130_fd_sc_hd__decap_3
XPHY_111 _21_/VGND _21_/VPWR sky130_fd_sc_hd__tapvpwrvgnd_1
XPHY_122 _23_/VGND PHY_25/VPWR sky130_fd_sc_hd__tapvpwrvgnd_1
XFILLER_21_196 PHY_43/VGND _27_/VPWR sky130_fd_sc_hd__fill_2
XFILLER_7_51 PHY_14/VGND PHY_17/VPWR sky130_fd_sc_hd__decap_8
XFILLER_7_62 PHY_14/VGND PHY_17/VPWR sky130_fd_sc_hd__decap_12
XFILLER_16_93 PHY_35/VGND PHY_33/VPWR sky130_fd_sc_hd__decap_8
XFILLER_16_60 PHY_35/VGND PHY_33/VPWR sky130_fd_sc_hd__fill_1
XFILLER_8_178 _21_/VGND PHY_17/VPWR sky130_fd_sc_hd__decap_12
XFILLER_37_15 _08_/VGND PHY_74/VPWR sky130_fd_sc_hd__decap_12
XFILLER_5_159 _11_/VGND _11_/VPWR sky130_fd_sc_hd__decap_12