* NGSPICE file created from cby_0__1_.ext - technology: sky130A

* Black-box entry subcircuit for sky130_fd_sc_hd__fill_1 abstract view
.subckt sky130_fd_sc_hd__fill_1 VGND VPWR
.ends

* Black-box entry subcircuit for sky130_fd_sc_hd__dfrbp_1 abstract view
.subckt sky130_fd_sc_hd__dfrbp_1 D Q Q_N RESET_B CLK VGND VPWR
.ends

* Black-box entry subcircuit for sky130_fd_sc_hd__fill_2 abstract view
.subckt sky130_fd_sc_hd__fill_2 VGND VPWR
.ends

* Black-box entry subcircuit for sky130_fd_sc_hd__diode_2 abstract view
.subckt sky130_fd_sc_hd__diode_2 DIODE VGND VPWR
.ends

* Black-box entry subcircuit for sky130_fd_sc_hd__decap_12 abstract view
.subckt sky130_fd_sc_hd__decap_12 VGND VPWR
.ends

* Black-box entry subcircuit for sky130_fd_sc_hd__decap_8 abstract view
.subckt sky130_fd_sc_hd__decap_8 VGND VPWR
.ends

* Black-box entry subcircuit for sky130_fd_sc_hd__decap_3 abstract view
.subckt sky130_fd_sc_hd__decap_3 VGND VPWR
.ends

* Black-box entry subcircuit for sky130_fd_sc_hd__decap_6 abstract view
.subckt sky130_fd_sc_hd__decap_6 VGND VPWR
.ends

* Black-box entry subcircuit for sky130_fd_sc_hd__decap_4 abstract view
.subckt sky130_fd_sc_hd__decap_4 VGND VPWR
.ends

* Black-box entry subcircuit for sky130_fd_sc_hd__tapvpwrvgnd_1 abstract view
.subckt sky130_fd_sc_hd__tapvpwrvgnd_1 VGND VPWR
.ends

* Black-box entry subcircuit for sky130_fd_sc_hd__clkbuf_1 abstract view
.subckt sky130_fd_sc_hd__clkbuf_1 A X VGND VPWR
.ends

* Black-box entry subcircuit for sky130_fd_sc_hd__buf_2 abstract view
.subckt sky130_fd_sc_hd__buf_2 A X VGND VPWR
.ends

* Black-box entry subcircuit for sky130_fd_sc_hd__conb_1 abstract view
.subckt sky130_fd_sc_hd__conb_1 HI LO VGND VPWR
.ends

* Black-box entry subcircuit for sky130_fd_sc_hd__clkbuf_16 abstract view
.subckt sky130_fd_sc_hd__clkbuf_16 A X VGND VPWR
.ends

.subckt cby_0__1_ chany_out_7_ chany_in_6_ chany_in_2_ chany_out_15_ chany_in_1_ left_grid_pin_8_
+ left_grid_pin_12_ chany_in_14_ chany_out_9_ chany_in_15_ chany_out_6_ chany_in_0_
+ left_grid_pin_14_ chany_in_4_ chany_in_3_ chany_out_1_ chany_out_16_ chany_out_11_
+ chany_out_12_ chany_out_0_ right_grid_pin_7_ chany_in_8_ chany_in_9_ right_grid_pin_3_
+ chany_in_16_ left_grid_pin_0_ chany_in_12_ prog_clk chany_in_13_ chany_out_17_ left_grid_pin_4_
+ chany_out_4_ chany_in_11_ chany_in_17_ chany_out_14_ ccff_tail ccff_head pReset
+ left_grid_pin_10_ left_grid_pin_6_ left_grid_pin_2_ chany_out_13_ chany_out_3_ chany_in_5_
+ chany_out_8_ chany_out_5_ chany_in_10_ chany_in_7_ chany_out_2_ chany_out_10_
XFILLER_22_111 PHY_47/VGND PHY_45/VPWR sky130_fd_sc_hd__fill_1
XFILLER_26_30 _18_/VGND _18_/VPWR sky130_fd_sc_hd__fill_1
Xmem_right_ipin_7.sc_dff_compact_2_.sky130_fd_sc_hd__dfrbp_1 mem_right_ipin_7.sc_dff_compact_1_.sky130_fd_sc_hd__dfrbp_1/Q
+ mem_right_ipin_7.sc_dff_compact_2_.sky130_fd_sc_hd__dfrbp_1/Q mem_right_ipin_7.sc_dff_compact_2_.sky130_fd_sc_hd__dfrbp_1/Q_N
+ pReset clkbuf_2_0_0_prog_clk/X PHY_94/VGND PHY_13/VPWR sky130_fd_sc_hd__dfrbp_1
XFILLER_12_32 PHY_27/VGND PHY_25/VPWR sky130_fd_sc_hd__fill_2
XANTENNA_mem_right_ipin_7.sc_dff_compact_3_.sky130_fd_sc_hd__dfrbp_1_D mem_right_ipin_7.sc_dff_compact_2_.sky130_fd_sc_hd__dfrbp_1/Q
+ _09_/VGND _07_/VPWR sky130_fd_sc_hd__diode_2
Xmem_right_ipin_4.sc_dff_compact_3_.sky130_fd_sc_hd__dfrbp_1 mem_right_ipin_4.sc_dff_compact_2_.sky130_fd_sc_hd__dfrbp_1/Q
+ mem_right_ipin_4.sc_dff_compact_3_.sky130_fd_sc_hd__dfrbp_1/Q mem_right_ipin_4.sc_dff_compact_3_.sky130_fd_sc_hd__dfrbp_1/Q_N
+ pReset clkbuf_2_2_0_prog_clk/X PHY_94/VGND PHY_13/VPWR sky130_fd_sc_hd__dfrbp_1
XFILLER_5_162 _00_/VGND PHY_13/VPWR sky130_fd_sc_hd__fill_2
XFILLER_5_184 _00_/VGND PHY_13/VPWR sky130_fd_sc_hd__decap_12
XFILLER_23_86 PHY_47/VGND _11_/VPWR sky130_fd_sc_hd__decap_12
XFILLER_23_53 PHY_47/VGND _11_/VPWR sky130_fd_sc_hd__decap_8
Xmem_right_ipin_1.sc_dff_compact_4_.sky130_fd_sc_hd__dfrbp_1 mem_right_ipin_1.sc_dff_compact_4_.sky130_fd_sc_hd__dfrbp_1/D
+ mem_right_ipin_1.sc_dff_compact_4_.sky130_fd_sc_hd__dfrbp_1/Q mem_right_ipin_1.sc_dff_compact_4_.sky130_fd_sc_hd__dfrbp_1/Q_N
+ pReset clkbuf_2_1_0_prog_clk/X PHY_43/VGND PHY_40/VPWR sky130_fd_sc_hd__dfrbp_1
XFILLER_2_132 _09_/VGND _07_/VPWR sky130_fd_sc_hd__decap_8
XFILLER_2_154 _09_/VGND _07_/VPWR sky130_fd_sc_hd__decap_3
XFILLER_9_11 PHY_19/VGND PHY_21/VPWR sky130_fd_sc_hd__fill_2
XFILLER_9_55 PHY_19/VGND PHY_21/VPWR sky130_fd_sc_hd__fill_2
XFILLER_9_66 PHY_19/VGND PHY_21/VPWR sky130_fd_sc_hd__fill_2
XANTENNA_clkbuf_2_1_0_prog_clk_A clkbuf_2_1_0_prog_clk/A PHY_31/VGND PHY_33/VPWR sky130_fd_sc_hd__diode_2
XFILLER_20_54 PHY_43/VGND PHY_40/VPWR sky130_fd_sc_hd__fill_2
XFILLER_20_32 PHY_43/VGND PHY_40/VPWR sky130_fd_sc_hd__fill_2
XFILLER_19_172 PHY_39/VGND PHY_40/VPWR sky130_fd_sc_hd__fill_2
XFILLER_13_3 PHY_27/VGND PHY_26/VPWR sky130_fd_sc_hd__decap_6
XFILLER_6_56 PHY_94/VGND PHY_13/VPWR sky130_fd_sc_hd__decap_4
XFILLER_31_42 _15_/VGND _22_/VPWR sky130_fd_sc_hd__fill_1
XFILLER_15_98 PHY_31/VGND PHY_33/VPWR sky130_fd_sc_hd__decap_12
XPHY_170 _22_/VGND PHY_66/VPWR sky130_fd_sc_hd__tapvpwrvgnd_1
XFILLER_31_123 _15_/VGND _22_/VPWR sky130_fd_sc_hd__decap_12
XFILLER_16_142 PHY_35/VGND PHY_33/VPWR sky130_fd_sc_hd__decap_8
XFILLER_26_20 _18_/VGND _18_/VPWR sky130_fd_sc_hd__fill_2
XFILLER_13_123 PHY_27/VGND PHY_26/VPWR sky130_fd_sc_hd__fill_2
XFILLER_3_13 _09_/VGND _00_/VPWR sky130_fd_sc_hd__fill_2
XFILLER_3_46 _09_/VGND _00_/VPWR sky130_fd_sc_hd__decap_3
XFILLER_5_196 _00_/VGND PHY_13/VPWR sky130_fd_sc_hd__fill_2
XANTENNA_mem_right_ipin_0.sc_dff_compact_4_.sky130_fd_sc_hd__dfrbp_1_RESET_B pReset
+ _11_/VGND _11_/VPWR sky130_fd_sc_hd__diode_2
XFILLER_23_98 PHY_47/VGND _11_/VPWR sky130_fd_sc_hd__decap_12
XANTENNA_mem_right_ipin_2.sc_dff_compact_5_.sky130_fd_sc_hd__dfrbp_1_RESET_B pReset
+ PHY_39/VGND PHY_40/VPWR sky130_fd_sc_hd__diode_2
XFILLER_18_87 PHY_39/VGND PHY_37/VPWR sky130_fd_sc_hd__fill_1
XFILLER_18_32 PHY_39/VGND PHY_37/VPWR sky130_fd_sc_hd__fill_2
XFILLER_18_21 PHY_39/VGND PHY_37/VPWR sky130_fd_sc_hd__decap_8
XFILLER_29_107 _20_/VGND _13_/VPWR sky130_fd_sc_hd__decap_12
XFILLER_29_42 _20_/VGND _13_/VPWR sky130_fd_sc_hd__fill_1
XFILLER_19_184 PHY_39/VGND PHY_40/VPWR sky130_fd_sc_hd__decap_12
XFILLER_25_110 _11_/VGND _18_/VPWR sky130_fd_sc_hd__decap_12
XPHY_171 _22_/VGND PHY_66/VPWR sky130_fd_sc_hd__tapvpwrvgnd_1
XFILLER_31_179 _15_/VGND _22_/VPWR sky130_fd_sc_hd__decap_4
XFILLER_31_135 _15_/VGND _22_/VPWR sky130_fd_sc_hd__decap_12
XFILLER_31_87 _15_/VGND _22_/VPWR sky130_fd_sc_hd__fill_2
XPHY_160 _20_/VGND _13_/VPWR sky130_fd_sc_hd__tapvpwrvgnd_1
XFILLER_16_154 PHY_35/VGND PHY_33/VPWR sky130_fd_sc_hd__decap_6
XFILLER_22_179 PHY_47/VGND PHY_45/VPWR sky130_fd_sc_hd__decap_12
XFILLER_22_135 PHY_47/VGND PHY_45/VPWR sky130_fd_sc_hd__fill_2
XFILLER_26_32 _18_/VGND _18_/VPWR sky130_fd_sc_hd__decap_12
XFILLER_13_179 PHY_27/VGND PHY_26/VPWR sky130_fd_sc_hd__decap_4
XFILLER_13_146 PHY_27/VGND PHY_26/VPWR sky130_fd_sc_hd__fill_2
XFILLER_9_106 PHY_19/VGND PHY_21/VPWR sky130_fd_sc_hd__fill_2
XANTENNA_mem_right_ipin_0.sc_dff_compact_4_.sky130_fd_sc_hd__dfrbp_1_CLK clkbuf_2_1_0_prog_clk/X
+ _11_/VGND _18_/VPWR sky130_fd_sc_hd__diode_2
XFILLER_8_183 PHY_19/VGND PHY_17/VPWR sky130_fd_sc_hd__decap_12
XANTENNA_mem_right_ipin_1.sc_dff_compact_5_.sky130_fd_sc_hd__dfrbp_1_CLK clkbuf_2_3_0_prog_clk/X
+ PHY_43/VGND PHY_40/VPWR sky130_fd_sc_hd__diode_2
XFILLER_10_105 PHY_23/VGND PHY_21/VPWR sky130_fd_sc_hd__decap_3
Xmem_right_ipin_6.sc_dff_compact_1_.sky130_fd_sc_hd__dfrbp_1 mem_right_ipin_6.sc_dff_compact_1_.sky130_fd_sc_hd__dfrbp_1/D
+ mem_right_ipin_6.sc_dff_compact_2_.sky130_fd_sc_hd__dfrbp_1/D mem_right_ipin_6.sc_dff_compact_1_.sky130_fd_sc_hd__dfrbp_1/Q_N
+ pReset clkbuf_2_2_0_prog_clk/X PHY_27/VGND PHY_25/VPWR sky130_fd_sc_hd__dfrbp_1
XFILLER_2_112 _09_/VGND _07_/VPWR sky130_fd_sc_hd__decap_4
XFILLER_0_15 _08_/VGND PHY_0/VPWR sky130_fd_sc_hd__fill_1
XFILLER_2_123 _09_/VGND _07_/VPWR sky130_fd_sc_hd__fill_2
XFILLER_2_145 _09_/VGND _07_/VPWR sky130_fd_sc_hd__decap_8
XFILLER_3_3 _09_/VGND _00_/VPWR sky130_fd_sc_hd__decap_4
Xmem_left_ipin_0.sc_dff_compact_2_.sky130_fd_sc_hd__dfrbp_1 mem_left_ipin_0.sc_dff_compact_2_.sky130_fd_sc_hd__dfrbp_1/D
+ mem_left_ipin_0.sc_dff_compact_3_.sky130_fd_sc_hd__dfrbp_1/D mem_left_ipin_0.sc_dff_compact_2_.sky130_fd_sc_hd__dfrbp_1/Q_N
+ pReset clkbuf_2_0_0_prog_clk/X _00_/VGND PHY_13/VPWR sky130_fd_sc_hd__dfrbp_1
Xmem_right_ipin_3.sc_dff_compact_2_.sky130_fd_sc_hd__dfrbp_1 mem_right_ipin_3.sc_dff_compact_1_.sky130_fd_sc_hd__dfrbp_1/Q
+ mem_right_ipin_3.sc_dff_compact_2_.sky130_fd_sc_hd__dfrbp_1/Q mem_right_ipin_3.sc_dff_compact_2_.sky130_fd_sc_hd__dfrbp_1/Q_N
+ pReset clkbuf_2_3_0_prog_clk/X PHY_39/VGND PHY_37/VPWR sky130_fd_sc_hd__dfrbp_1
Xmem_right_ipin_0.sc_dff_compact_3_.sky130_fd_sc_hd__dfrbp_1 mem_right_ipin_0.sc_dff_compact_3_.sky130_fd_sc_hd__dfrbp_1/D
+ mem_right_ipin_0.sc_dff_compact_3_.sky130_fd_sc_hd__dfrbp_1/Q mem_right_ipin_0.sc_dff_compact_3_.sky130_fd_sc_hd__dfrbp_1/Q_N
+ pReset clkbuf_2_1_0_prog_clk/X PHY_47/VGND _11_/VPWR sky130_fd_sc_hd__dfrbp_1
XFILLER_29_119 _20_/VGND _13_/VPWR sky130_fd_sc_hd__decap_3
XANTENNA_clkbuf_1_0_0_prog_clk_A clkbuf_0_prog_clk/X PHY_27/VGND PHY_26/VPWR sky130_fd_sc_hd__diode_2
XFILLER_1_80 _08_/VGND _07_/VPWR sky130_fd_sc_hd__fill_1
XFILLER_28_141 _20_/VGND _26_/VPWR sky130_fd_sc_hd__decap_12
XFILLER_19_196 PHY_39/VGND PHY_40/VPWR sky130_fd_sc_hd__fill_2
XFILLER_31_22 _15_/VGND _22_/VPWR sky130_fd_sc_hd__fill_2
XFILLER_15_45 PHY_31/VGND PHY_33/VPWR sky130_fd_sc_hd__decap_4
XFILLER_15_12 PHY_31/VGND PHY_33/VPWR sky130_fd_sc_hd__fill_2
XPHY_172 _22_/VGND PHY_66/VPWR sky130_fd_sc_hd__tapvpwrvgnd_1
XFILLER_31_169 _15_/VGND _22_/VPWR sky130_fd_sc_hd__fill_2
XFILLER_31_147 _15_/VGND _22_/VPWR sky130_fd_sc_hd__decap_12
XFILLER_31_103 _15_/VGND _22_/VPWR sky130_fd_sc_hd__decap_12
XPHY_161 _15_/VGND _13_/VPWR sky130_fd_sc_hd__tapvpwrvgnd_1
XPHY_150 _18_/VGND _18_/VPWR sky130_fd_sc_hd__tapvpwrvgnd_1
Xclkbuf_2_1_0_prog_clk clkbuf_2_1_0_prog_clk/A clkbuf_2_1_0_prog_clk/X PHY_31/VGND
+ PHY_33/VPWR sky130_fd_sc_hd__clkbuf_1
XFILLER_26_44 _18_/VGND _18_/VPWR sky130_fd_sc_hd__decap_12
XFILLER_13_114 PHY_27/VGND PHY_26/VPWR sky130_fd_sc_hd__fill_2
XFILLER_9_118 PHY_19/VGND PHY_21/VPWR sky130_fd_sc_hd__decap_4
XFILLER_12_191 PHY_27/VGND PHY_25/VPWR sky130_fd_sc_hd__decap_6
XFILLER_3_59 _09_/VGND _00_/VPWR sky130_fd_sc_hd__fill_2
XFILLER_8_195 PHY_19/VGND PHY_17/VPWR sky130_fd_sc_hd__decap_3
XFILLER_10_139 PHY_23/VGND PHY_21/VPWR sky130_fd_sc_hd__decap_12
XFILLER_5_154 _00_/VGND PHY_13/VPWR sky130_fd_sc_hd__decap_6
XANTENNA_mem_right_ipin_1.sc_dff_compact_5_.sky130_fd_sc_hd__dfrbp_1_RESET_B pReset
+ PHY_39/VGND PHY_40/VPWR sky130_fd_sc_hd__diode_2
XANTENNA__12__A chany_in_11_ _15_/VGND _22_/VPWR sky130_fd_sc_hd__diode_2
XFILLER_23_12 PHY_47/VGND _11_/VPWR sky130_fd_sc_hd__fill_2
XFILLER_29_3 _20_/VGND _13_/VPWR sky130_fd_sc_hd__decap_8
XFILLER_15_9 PHY_31/VGND PHY_33/VPWR sky130_fd_sc_hd__fill_1
XANTENNA_mem_right_ipin_4.sc_dff_compact_0_.sky130_fd_sc_hd__dfrbp_1_CLK clkbuf_2_2_0_prog_clk/X
+ PHY_23/VGND PHY_25/VPWR sky130_fd_sc_hd__diode_2
XANTENNA_mem_right_ipin_6.sc_dff_compact_2_.sky130_fd_sc_hd__dfrbp_1_CLK clkbuf_2_3_0_prog_clk/X
+ PHY_27/VGND PHY_26/VPWR sky130_fd_sc_hd__diode_2
XANTENNA_mem_right_ipin_5.sc_dff_compact_1_.sky130_fd_sc_hd__dfrbp_1_CLK clkbuf_2_2_0_prog_clk/X
+ _09_/VGND _07_/VPWR sky130_fd_sc_hd__diode_2
XFILLER_29_22 _20_/VGND _13_/VPWR sky130_fd_sc_hd__fill_2
XFILLER_29_11 _20_/VGND _13_/VPWR sky130_fd_sc_hd__decap_3
XANTENNA_mem_right_ipin_7.sc_dff_compact_3_.sky130_fd_sc_hd__dfrbp_1_CLK clkbuf_2_0_0_prog_clk/X
+ _09_/VGND _00_/VPWR sky130_fd_sc_hd__diode_2
XFILLER_6_15 PHY_94/VGND PHY_13/VPWR sky130_fd_sc_hd__fill_2
XFILLER_19_164 PHY_39/VGND PHY_40/VPWR sky130_fd_sc_hd__fill_2
XFILLER_19_131 PHY_39/VGND PHY_40/VPWR sky130_fd_sc_hd__fill_2
XFILLER_19_120 PHY_39/VGND PHY_40/VPWR sky130_fd_sc_hd__fill_2
XANTENNA__20__A chany_in_2_ _20_/VGND _13_/VPWR sky130_fd_sc_hd__diode_2
XFILLER_25_123 _11_/VGND _18_/VPWR sky130_fd_sc_hd__decap_12
XFILLER_15_57 PHY_31/VGND PHY_33/VPWR sky130_fd_sc_hd__decap_4
XPHY_173 _22_/VGND PHY_66/VPWR sky130_fd_sc_hd__tapvpwrvgnd_1
XFILLER_31_159 _15_/VGND _22_/VPWR sky130_fd_sc_hd__decap_8
XFILLER_31_115 _15_/VGND _22_/VPWR sky130_fd_sc_hd__decap_6
XPHY_162 _15_/VGND _13_/VPWR sky130_fd_sc_hd__tapvpwrvgnd_1
XPHY_151 _18_/VGND _18_/VPWR sky130_fd_sc_hd__tapvpwrvgnd_1
XPHY_140 PHY_47/VGND _11_/VPWR sky130_fd_sc_hd__tapvpwrvgnd_1
XFILLER_11_3 PHY_23/VGND PHY_25/VPWR sky130_fd_sc_hd__decap_6
XFILLER_30_181 _15_/VGND _13_/VPWR sky130_fd_sc_hd__decap_12
XFILLER_26_56 _18_/VGND _18_/VPWR sky130_fd_sc_hd__decap_12
XANTENNA_mem_left_ipin_0.sc_dff_compact_3_.sky130_fd_sc_hd__dfrbp_1_CLK clkbuf_2_0_0_prog_clk/X
+ PHY_94/VGND PHY_17/VPWR sky130_fd_sc_hd__diode_2
XANTENNA__15__A chany_in_14_ _15_/VGND _22_/VPWR sky130_fd_sc_hd__diode_2
XFILLER_3_38 _09_/VGND _00_/VPWR sky130_fd_sc_hd__decap_8
XFILLER_12_36 PHY_27/VGND PHY_25/VPWR sky130_fd_sc_hd__fill_2
Xmem_right_ipin_7.sc_dff_compact_5_.sky130_fd_sc_hd__dfrbp_1 mem_right_ipin_7.sc_dff_compact_4_.sky130_fd_sc_hd__dfrbp_1/Q
+ ccff_tail mem_right_ipin_7.sc_dff_compact_5_.sky130_fd_sc_hd__dfrbp_1/Q_N pReset
+ clkbuf_2_0_0_prog_clk/X _09_/VGND _00_/VPWR sky130_fd_sc_hd__dfrbp_1
XFILLER_8_152 PHY_19/VGND PHY_17/VPWR sky130_fd_sc_hd__fill_1
XFILLER_5_111 _00_/VGND PHY_13/VPWR sky130_fd_sc_hd__fill_2
XFILLER_5_166 _00_/VGND PHY_13/VPWR sky130_fd_sc_hd__fill_2
XFILLER_9_15 PHY_19/VGND PHY_21/VPWR sky130_fd_sc_hd__fill_2
XFILLER_9_59 PHY_19/VGND PHY_21/VPWR sky130_fd_sc_hd__fill_2
Xmem_right_ipin_5.sc_dff_compact_0_.sky130_fd_sc_hd__dfrbp_1 mem_right_ipin_4.sc_dff_compact_5_.sky130_fd_sc_hd__dfrbp_1/Q
+ mem_right_ipin_5.sc_dff_compact_0_.sky130_fd_sc_hd__dfrbp_1/Q mem_right_ipin_5.sc_dff_compact_0_.sky130_fd_sc_hd__dfrbp_1/Q_N
+ pReset clkbuf_2_2_0_prog_clk/X _00_/VGND PHY_13/VPWR sky130_fd_sc_hd__dfrbp_1
XANTENNA__23__A chany_in_5_ _20_/VGND _13_/VPWR sky130_fd_sc_hd__diode_2
Xmem_right_ipin_2.sc_dff_compact_1_.sky130_fd_sc_hd__dfrbp_1 mem_right_ipin_2.sc_dff_compact_0_.sky130_fd_sc_hd__dfrbp_1/Q
+ mem_right_ipin_2.sc_dff_compact_2_.sky130_fd_sc_hd__dfrbp_1/D mem_right_ipin_2.sc_dff_compact_1_.sky130_fd_sc_hd__dfrbp_1/Q_N
+ pReset clkbuf_2_3_0_prog_clk/X PHY_39/VGND PHY_37/VPWR sky130_fd_sc_hd__dfrbp_1
XFILLER_29_45 _20_/VGND _13_/VPWR sky130_fd_sc_hd__decap_12
XFILLER_28_154 _20_/VGND _26_/VPWR sky130_fd_sc_hd__decap_12
XANTENNA__18__A chany_in_17_ _11_/VGND _18_/VPWR sky130_fd_sc_hd__diode_2
XFILLER_20_58 PHY_43/VGND PHY_40/VPWR sky130_fd_sc_hd__decap_3
XFILLER_20_36 PHY_43/VGND PHY_40/VPWR sky130_fd_sc_hd__decap_12
XFILLER_19_176 PHY_39/VGND PHY_40/VPWR sky130_fd_sc_hd__decap_6
XFILLER_10_91 PHY_23/VGND PHY_21/VPWR sky130_fd_sc_hd__fill_1
XFILLER_25_135 _11_/VGND _18_/VPWR sky130_fd_sc_hd__decap_12
XANTENNA_mem_right_ipin_0.sc_dff_compact_1_.sky130_fd_sc_hd__dfrbp_1_D mem_right_ipin_0.sc_dff_compact_1_.sky130_fd_sc_hd__dfrbp_1/D
+ PHY_35/VGND PHY_33/VPWR sky130_fd_sc_hd__diode_2
XANTENNA_mem_left_ipin_0.sc_dff_compact_1_.sky130_fd_sc_hd__dfrbp_1_D mem_left_ipin_0.sc_dff_compact_0_.sky130_fd_sc_hd__dfrbp_1/Q
+ _08_/VGND PHY_0/VPWR sky130_fd_sc_hd__diode_2
XPHY_174 _22_/VGND PHY_66/VPWR sky130_fd_sc_hd__tapvpwrvgnd_1
XPHY_163 _15_/VGND _13_/VPWR sky130_fd_sc_hd__tapvpwrvgnd_1
XPHY_152 _18_/VGND _26_/VPWR sky130_fd_sc_hd__tapvpwrvgnd_1
XPHY_141 PHY_47/VGND _11_/VPWR sky130_fd_sc_hd__tapvpwrvgnd_1
XPHY_130 PHY_39/VGND PHY_40/VPWR sky130_fd_sc_hd__tapvpwrvgnd_1
XFILLER_30_193 _15_/VGND _13_/VPWR sky130_fd_sc_hd__decap_4
XFILLER_30_160 _15_/VGND _13_/VPWR sky130_fd_sc_hd__decap_12
XFILLER_22_105 PHY_47/VGND PHY_45/VPWR sky130_fd_sc_hd__decap_6
XFILLER_7_70 PHY_94/VGND PHY_17/VPWR sky130_fd_sc_hd__decap_12
XFILLER_26_68 _18_/VGND _18_/VPWR sky130_fd_sc_hd__decap_12
XFILLER_26_24 _18_/VGND _18_/VPWR sky130_fd_sc_hd__decap_6
XFILLER_21_182 PHY_43/VGND PHY_45/VPWR sky130_fd_sc_hd__fill_1
XFILLER_21_160 PHY_43/VGND PHY_45/VPWR sky130_fd_sc_hd__fill_2
XANTENNA_mem_right_ipin_0.sc_dff_compact_5_.sky130_fd_sc_hd__dfrbp_1_RESET_B pReset
+ PHY_43/VGND PHY_45/VPWR sky130_fd_sc_hd__diode_2
XFILLER_13_127 PHY_27/VGND PHY_26/VPWR sky130_fd_sc_hd__decap_12
XANTENNA__26__A chany_in_8_ _18_/VGND _26_/VPWR sky130_fd_sc_hd__diode_2
XFILLER_12_15 PHY_27/VGND PHY_25/VPWR sky130_fd_sc_hd__decap_3
XFILLER_5_123 _00_/VGND PHY_13/VPWR sky130_fd_sc_hd__decap_4
XFILLER_4_93 _00_/VGND _00_/VPWR sky130_fd_sc_hd__decap_12
XFILLER_0_18 _08_/VGND PHY_0/VPWR sky130_fd_sc_hd__decap_12
XANTENNA_mem_left_ipin_0.sc_dff_compact_4_.sky130_fd_sc_hd__dfrbp_1_D mem_left_ipin_0.sc_dff_compact_3_.sky130_fd_sc_hd__dfrbp_1/Q
+ PHY_19/VGND PHY_17/VPWR sky130_fd_sc_hd__diode_2
XANTENNA_mem_right_ipin_0.sc_dff_compact_4_.sky130_fd_sc_hd__dfrbp_1_D mem_right_ipin_0.sc_dff_compact_3_.sky130_fd_sc_hd__dfrbp_1/Q
+ _18_/VGND _18_/VPWR sky130_fd_sc_hd__diode_2
XFILLER_18_36 PHY_39/VGND PHY_37/VPWR sky130_fd_sc_hd__decap_12
XFILLER_1_3 _08_/VGND _07_/VPWR sky130_fd_sc_hd__decap_4
X_27_ chany_in_9_ chany_out_9_ _15_/VGND _13_/VPWR sky130_fd_sc_hd__buf_2
XFILLER_1_72 _08_/VGND _07_/VPWR sky130_fd_sc_hd__decap_8
XFILLER_29_57 _20_/VGND _13_/VPWR sky130_fd_sc_hd__decap_4
XFILLER_28_166 _20_/VGND _26_/VPWR sky130_fd_sc_hd__decap_12
XFILLER_20_48 PHY_43/VGND PHY_40/VPWR sky130_fd_sc_hd__decap_4
XFILLER_20_15 PHY_43/VGND PHY_40/VPWR sky130_fd_sc_hd__decap_12
XFILLER_19_111 PHY_39/VGND PHY_40/VPWR sky130_fd_sc_hd__decap_6
XFILLER_33_180 _22_/VGND PHY_66/VPWR sky130_fd_sc_hd__decap_6
XFILLER_31_47 _15_/VGND _22_/VPWR sky130_fd_sc_hd__fill_2
XFILLER_25_147 _11_/VGND _18_/VPWR sky130_fd_sc_hd__decap_12
XPHY_175 _22_/VGND PHY_66/VPWR sky130_fd_sc_hd__tapvpwrvgnd_1
XPHY_164 _15_/VGND _22_/VPWR sky130_fd_sc_hd__tapvpwrvgnd_1
XPHY_153 _18_/VGND _26_/VPWR sky130_fd_sc_hd__tapvpwrvgnd_1
XPHY_142 PHY_47/VGND _11_/VPWR sky130_fd_sc_hd__tapvpwrvgnd_1
XPHY_131 PHY_43/VGND PHY_40/VPWR sky130_fd_sc_hd__tapvpwrvgnd_1
XPHY_120 PHY_35/VGND PHY_33/VPWR sky130_fd_sc_hd__tapvpwrvgnd_1
XFILLER_30_172 _15_/VGND _13_/VPWR sky130_fd_sc_hd__decap_4
XFILLER_22_139 PHY_47/VGND PHY_45/VPWR sky130_fd_sc_hd__decap_12
XPHY_0 _08_/VGND PHY_0/VPWR sky130_fd_sc_hd__decap_3
XFILLER_7_82 PHY_94/VGND PHY_17/VPWR sky130_fd_sc_hd__decap_12
XFILLER_13_139 PHY_27/VGND PHY_26/VPWR sky130_fd_sc_hd__fill_1
XFILLER_16_91 PHY_35/VGND PHY_33/VPWR sky130_fd_sc_hd__fill_1
XANTENNA_mem_right_ipin_1.sc_dff_compact_2_.sky130_fd_sc_hd__dfrbp_1_D mem_right_ipin_1.sc_dff_compact_1_.sky130_fd_sc_hd__dfrbp_1/Q
+ PHY_35/VGND PHY_33/VPWR sky130_fd_sc_hd__diode_2
XFILLER_8_154 PHY_19/VGND PHY_17/VPWR sky130_fd_sc_hd__decap_6
Xclkbuf_2_0_0_prog_clk clkbuf_2_1_0_prog_clk/A clkbuf_2_0_0_prog_clk/X PHY_19/VGND
+ PHY_21/VPWR sky130_fd_sc_hd__clkbuf_1
Xmem_right_ipin_6.sc_dff_compact_4_.sky130_fd_sc_hd__dfrbp_1 mem_right_ipin_6.sc_dff_compact_4_.sky130_fd_sc_hd__dfrbp_1/D
+ mem_right_ipin_6.sc_dff_compact_4_.sky130_fd_sc_hd__dfrbp_1/Q mem_right_ipin_6.sc_dff_compact_4_.sky130_fd_sc_hd__dfrbp_1/Q_N
+ pReset clkbuf_2_1_0_prog_clk/X PHY_27/VGND PHY_26/VPWR sky130_fd_sc_hd__dfrbp_1
XFILLER_2_105 _09_/VGND _07_/VPWR sky130_fd_sc_hd__decap_4
XFILLER_2_116 _09_/VGND _07_/VPWR sky130_fd_sc_hd__fill_1
Xmem_left_ipin_0.sc_dff_compact_5_.sky130_fd_sc_hd__dfrbp_1 mem_left_ipin_0.sc_dff_compact_4_.sky130_fd_sc_hd__dfrbp_1/Q
+ mem_left_ipin_1.sc_dff_compact_0_.sky130_fd_sc_hd__dfrbp_1/D mem_left_ipin_0.sc_dff_compact_5_.sky130_fd_sc_hd__dfrbp_1/Q_N
+ pReset clkbuf_2_0_0_prog_clk/X PHY_23/VGND PHY_25/VPWR sky130_fd_sc_hd__dfrbp_1
XFILLER_18_48 PHY_39/VGND PHY_37/VPWR sky130_fd_sc_hd__decap_12
XFILLER_18_15 PHY_39/VGND PHY_37/VPWR sky130_fd_sc_hd__decap_4
Xmem_right_ipin_3.sc_dff_compact_5_.sky130_fd_sc_hd__dfrbp_1 mem_right_ipin_3.sc_dff_compact_4_.sky130_fd_sc_hd__dfrbp_1/Q
+ mem_right_ipin_3.sc_dff_compact_5_.sky130_fd_sc_hd__dfrbp_1/Q mem_right_ipin_3.sc_dff_compact_5_.sky130_fd_sc_hd__dfrbp_1/Q_N
+ pReset clkbuf_2_2_0_prog_clk/X PHY_27/VGND PHY_26/VPWR sky130_fd_sc_hd__dfrbp_1
XFILLER_27_3 _18_/VGND _26_/VPWR sky130_fd_sc_hd__decap_12
XFILLER_24_80 _11_/VGND _11_/VPWR sky130_fd_sc_hd__decap_12
XANTENNA_mem_right_ipin_2.sc_dff_compact_0_.sky130_fd_sc_hd__dfrbp_1_D mem_right_ipin_1.sc_dff_compact_5_.sky130_fd_sc_hd__dfrbp_1/Q
+ PHY_43/VGND PHY_45/VPWR sky130_fd_sc_hd__diode_2
X_26_ chany_in_8_ chany_out_8_ _20_/VGND _26_/VPWR sky130_fd_sc_hd__buf_2
XFILLER_20_27 PHY_43/VGND PHY_40/VPWR sky130_fd_sc_hd__decap_4
XFILLER_1_84 _08_/VGND _07_/VPWR sky130_fd_sc_hd__decap_12
XFILLER_1_62 _08_/VGND _07_/VPWR sky130_fd_sc_hd__decap_3
XFILLER_1_51 _08_/VGND _07_/VPWR sky130_fd_sc_hd__fill_2
XFILLER_28_178 _20_/VGND _26_/VPWR sky130_fd_sc_hd__decap_12
XFILLER_19_123 PHY_39/VGND PHY_40/VPWR sky130_fd_sc_hd__fill_2
XFILLER_13_9 PHY_27/VGND PHY_26/VPWR sky130_fd_sc_hd__fill_1
XFILLER_10_93 PHY_23/VGND PHY_21/VPWR sky130_fd_sc_hd__decap_12
XFILLER_25_159 _11_/VGND _18_/VPWR sky130_fd_sc_hd__decap_12
XANTENNA_mem_right_ipin_0.sc_dff_compact_3_.sky130_fd_sc_hd__dfrbp_1_CLK clkbuf_2_1_0_prog_clk/X
+ PHY_47/VGND _11_/VPWR sky130_fd_sc_hd__diode_2
XANTENNA_mem_right_ipin_1.sc_dff_compact_4_.sky130_fd_sc_hd__dfrbp_1_CLK clkbuf_2_1_0_prog_clk/X
+ PHY_39/VGND PHY_40/VPWR sky130_fd_sc_hd__diode_2
XANTENNA_mem_right_ipin_1.sc_dff_compact_5_.sky130_fd_sc_hd__dfrbp_1_D mem_right_ipin_1.sc_dff_compact_4_.sky130_fd_sc_hd__dfrbp_1/Q
+ PHY_39/VGND PHY_37/VPWR sky130_fd_sc_hd__diode_2
XFILLER_15_49 PHY_31/VGND PHY_33/VPWR sky130_fd_sc_hd__fill_1
XFILLER_15_16 PHY_31/VGND PHY_33/VPWR sky130_fd_sc_hd__fill_2
X_09_ _09_/HI right_grid_pin_3_ _09_/VGND _00_/VPWR sky130_fd_sc_hd__conb_1
XPHY_165 _15_/VGND _22_/VPWR sky130_fd_sc_hd__tapvpwrvgnd_1
XFILLER_31_59 _15_/VGND _22_/VPWR sky130_fd_sc_hd__fill_2
XFILLER_31_26 _15_/VGND _22_/VPWR sky130_fd_sc_hd__decap_12
XFILLER_31_15 _15_/VGND _22_/VPWR sky130_fd_sc_hd__decap_3
XPHY_154 _18_/VGND _26_/VPWR sky130_fd_sc_hd__tapvpwrvgnd_1
XFILLER_24_181 _11_/VGND _11_/VPWR sky130_fd_sc_hd__decap_12
XPHY_143 _11_/VGND _11_/VPWR sky130_fd_sc_hd__tapvpwrvgnd_1
XANTENNA_mem_right_ipin_2.sc_dff_compact_5_.sky130_fd_sc_hd__dfrbp_1_CLK clkbuf_2_3_0_prog_clk/X
+ PHY_39/VGND PHY_40/VPWR sky130_fd_sc_hd__diode_2
XPHY_132 PHY_43/VGND PHY_40/VPWR sky130_fd_sc_hd__tapvpwrvgnd_1
Xmem_right_ipin_1.sc_dff_compact_0_.sky130_fd_sc_hd__dfrbp_1 mem_right_ipin_0.sc_dff_compact_5_.sky130_fd_sc_hd__dfrbp_1/Q
+ mem_right_ipin_1.sc_dff_compact_1_.sky130_fd_sc_hd__dfrbp_1/D mem_right_ipin_1.sc_dff_compact_0_.sky130_fd_sc_hd__dfrbp_1/Q_N
+ pReset clkbuf_2_1_0_prog_clk/X PHY_39/VGND PHY_40/VPWR sky130_fd_sc_hd__dfrbp_1
XPHY_121 PHY_35/VGND PHY_33/VPWR sky130_fd_sc_hd__tapvpwrvgnd_1
XFILLER_16_126 PHY_35/VGND PHY_33/VPWR sky130_fd_sc_hd__fill_2
XPHY_110 PHY_27/VGND PHY_26/VPWR sky130_fd_sc_hd__tapvpwrvgnd_1
XFILLER_15_170 PHY_31/VGND PHY_33/VPWR sky130_fd_sc_hd__decap_12
XPHY_1 _08_/VGND PHY_0/VPWR sky130_fd_sc_hd__decap_3
XFILLER_26_15 _18_/VGND _18_/VPWR sky130_fd_sc_hd__fill_1
XFILLER_21_184 PHY_43/VGND PHY_45/VPWR sky130_fd_sc_hd__decap_12
XFILLER_7_94 PHY_94/VGND PHY_17/VPWR sky130_fd_sc_hd__decap_12
XFILLER_32_80 _22_/VGND _22_/VPWR sky130_fd_sc_hd__decap_12
XFILLER_12_151 PHY_27/VGND PHY_25/VPWR sky130_fd_sc_hd__fill_2
XFILLER_12_28 PHY_27/VGND PHY_25/VPWR sky130_fd_sc_hd__decap_3
XANTENNA_mem_right_ipin_2.sc_dff_compact_3_.sky130_fd_sc_hd__dfrbp_1_D mem_right_ipin_2.sc_dff_compact_2_.sky130_fd_sc_hd__dfrbp_1/Q
+ PHY_39/VGND PHY_40/VPWR sky130_fd_sc_hd__diode_2
XFILLER_4_84 _00_/VGND _00_/VPWR sky130_fd_sc_hd__decap_8
XFILLER_23_16 PHY_47/VGND _11_/VPWR sky130_fd_sc_hd__fill_2
XFILLER_2_128 _09_/VGND _07_/VPWR sky130_fd_sc_hd__fill_2
X_25_ chany_in_7_ chany_out_7_ _15_/VGND _13_/VPWR sky130_fd_sc_hd__buf_2
XFILLER_29_26 _20_/VGND _13_/VPWR sky130_fd_sc_hd__decap_12
XFILLER_1_96 _08_/VGND _07_/VPWR sky130_fd_sc_hd__decap_12
XFILLER_10_83 PHY_23/VGND PHY_21/VPWR sky130_fd_sc_hd__fill_2
XFILLER_6_19 PHY_94/VGND PHY_13/VPWR sky130_fd_sc_hd__decap_12
XANTENNA_mem_right_ipin_3.sc_dff_compact_1_.sky130_fd_sc_hd__dfrbp_1_D mem_right_ipin_3.sc_dff_compact_0_.sky130_fd_sc_hd__dfrbp_1/Q
+ PHY_39/VGND PHY_40/VPWR sky130_fd_sc_hd__diode_2
XFILLER_19_168 PHY_39/VGND PHY_40/VPWR sky130_fd_sc_hd__fill_2
XFILLER_19_135 PHY_39/VGND PHY_40/VPWR sky130_fd_sc_hd__fill_2
XFILLER_19_70 PHY_39/VGND PHY_40/VPWR sky130_fd_sc_hd__decap_12
XANTENNA_clkbuf_2_2_0_prog_clk_A clkbuf_2_3_0_prog_clk/A PHY_23/VGND PHY_21/VPWR sky130_fd_sc_hd__diode_2
X_08_ _08_/HI left_grid_pin_0_ _08_/VGND _07_/VPWR sky130_fd_sc_hd__conb_1
XFILLER_31_38 _15_/VGND _22_/VPWR sky130_fd_sc_hd__decap_4
XFILLER_16_105 PHY_35/VGND PHY_33/VPWR sky130_fd_sc_hd__decap_12
XPHY_100 PHY_19/VGND PHY_21/VPWR sky130_fd_sc_hd__tapvpwrvgnd_1
XPHY_166 _15_/VGND _22_/VPWR sky130_fd_sc_hd__tapvpwrvgnd_1
XPHY_155 _20_/VGND _26_/VPWR sky130_fd_sc_hd__tapvpwrvgnd_1
XFILLER_24_193 _11_/VGND _11_/VPWR sky130_fd_sc_hd__decap_4
XPHY_144 _11_/VGND _11_/VPWR sky130_fd_sc_hd__tapvpwrvgnd_1
XFILLER_21_82 PHY_43/VGND PHY_45/VPWR sky130_fd_sc_hd__fill_1
XFILLER_21_60 PHY_43/VGND PHY_45/VPWR sky130_fd_sc_hd__fill_1
XPHY_133 PHY_43/VGND PHY_40/VPWR sky130_fd_sc_hd__tapvpwrvgnd_1
XPHY_122 PHY_35/VGND PHY_37/VPWR sky130_fd_sc_hd__tapvpwrvgnd_1
XFILLER_15_182 PHY_31/VGND PHY_33/VPWR sky130_fd_sc_hd__fill_1
XPHY_111 PHY_27/VGND PHY_26/VPWR sky130_fd_sc_hd__tapvpwrvgnd_1
XPHY_2 _08_/VGND _07_/VPWR sky130_fd_sc_hd__decap_3
XFILLER_21_196 PHY_43/VGND PHY_45/VPWR sky130_fd_sc_hd__fill_2
XFILLER_21_152 PHY_43/VGND PHY_45/VPWR sky130_fd_sc_hd__fill_2
XFILLER_13_119 PHY_27/VGND PHY_26/VPWR sky130_fd_sc_hd__decap_3
XFILLER_7_40 PHY_94/VGND PHY_17/VPWR sky130_fd_sc_hd__decap_12
XFILLER_7_62 PHY_94/VGND PHY_17/VPWR sky130_fd_sc_hd__fill_2
XFILLER_16_93 PHY_35/VGND PHY_33/VPWR sky130_fd_sc_hd__decap_12
XFILLER_16_71 PHY_35/VGND PHY_33/VPWR sky130_fd_sc_hd__fill_2
XFILLER_8_134 PHY_19/VGND PHY_17/VPWR sky130_fd_sc_hd__decap_12
XFILLER_5_115 _00_/VGND PHY_13/VPWR sky130_fd_sc_hd__fill_2
XANTENNA_mem_right_ipin_5.sc_dff_compact_0_.sky130_fd_sc_hd__dfrbp_1_CLK clkbuf_2_2_0_prog_clk/X
+ _00_/VGND _00_/VPWR sky130_fd_sc_hd__diode_2
XANTENNA_mem_right_ipin_6.sc_dff_compact_1_.sky130_fd_sc_hd__dfrbp_1_CLK clkbuf_2_2_0_prog_clk/X
+ PHY_23/VGND PHY_21/VPWR sky130_fd_sc_hd__diode_2
XFILLER_3_9 _09_/VGND _00_/VPWR sky130_fd_sc_hd__fill_2
XANTENNA_mem_right_ipin_7.sc_dff_compact_2_.sky130_fd_sc_hd__dfrbp_1_CLK clkbuf_2_0_0_prog_clk/X
+ _00_/VGND PHY_13/VPWR sky130_fd_sc_hd__diode_2
XFILLER_1_184 _08_/VGND _07_/VPWR sky130_fd_sc_hd__decap_12
XANTENNA_mem_right_ipin_3.sc_dff_compact_4_.sky130_fd_sc_hd__dfrbp_1_D mem_right_ipin_3.sc_dff_compact_3_.sky130_fd_sc_hd__dfrbp_1/Q
+ PHY_27/VGND PHY_26/VPWR sky130_fd_sc_hd__diode_2
XFILLER_24_93 _11_/VGND _11_/VPWR sky130_fd_sc_hd__decap_12
X_24_ chany_in_6_ chany_out_6_ _15_/VGND _22_/VPWR sky130_fd_sc_hd__buf_2
XANTENNA_mem_left_ipin_0.sc_dff_compact_2_.sky130_fd_sc_hd__dfrbp_1_CLK clkbuf_2_0_0_prog_clk/X
+ _00_/VGND PHY_13/VPWR sky130_fd_sc_hd__diode_2
Xmem_right_ipin_5.sc_dff_compact_3_.sky130_fd_sc_hd__dfrbp_1 mem_right_ipin_5.sc_dff_compact_2_.sky130_fd_sc_hd__dfrbp_1/Q
+ mem_right_ipin_5.sc_dff_compact_4_.sky130_fd_sc_hd__dfrbp_1/D mem_right_ipin_5.sc_dff_compact_3_.sky130_fd_sc_hd__dfrbp_1/Q_N
+ pReset clkbuf_2_2_0_prog_clk/X PHY_94/VGND PHY_13/VPWR sky130_fd_sc_hd__dfrbp_1
XFILLER_29_38 _20_/VGND _13_/VPWR sky130_fd_sc_hd__decap_4
XFILLER_29_16 _20_/VGND _13_/VPWR sky130_fd_sc_hd__fill_2
XFILLER_32_3 _22_/VGND _22_/VPWR sky130_fd_sc_hd__decap_12
Xmem_right_ipin_2.sc_dff_compact_4_.sky130_fd_sc_hd__dfrbp_1 mem_right_ipin_2.sc_dff_compact_3_.sky130_fd_sc_hd__dfrbp_1/Q
+ mem_right_ipin_2.sc_dff_compact_4_.sky130_fd_sc_hd__dfrbp_1/Q mem_right_ipin_2.sc_dff_compact_4_.sky130_fd_sc_hd__dfrbp_1/Q_N
+ pReset clkbuf_2_3_0_prog_clk/X PHY_43/VGND PHY_45/VPWR sky130_fd_sc_hd__dfrbp_1
XFILLER_19_82 PHY_39/VGND PHY_40/VPWR sky130_fd_sc_hd__fill_2
X_07_ _07_/HI left_grid_pin_10_ _09_/VGND _07_/VPWR sky130_fd_sc_hd__conb_1
XPHY_167 _22_/VGND _22_/VPWR sky130_fd_sc_hd__tapvpwrvgnd_1
XPHY_156 _20_/VGND _26_/VPWR sky130_fd_sc_hd__tapvpwrvgnd_1
XPHY_145 _11_/VGND _11_/VPWR sky130_fd_sc_hd__tapvpwrvgnd_1
XPHY_134 PHY_43/VGND PHY_45/VPWR sky130_fd_sc_hd__tapvpwrvgnd_1
XPHY_123 PHY_35/VGND PHY_37/VPWR sky130_fd_sc_hd__tapvpwrvgnd_1
XFILLER_16_117 PHY_35/VGND PHY_33/VPWR sky130_fd_sc_hd__decap_6
XPHY_112 PHY_27/VGND PHY_26/VPWR sky130_fd_sc_hd__tapvpwrvgnd_1
XPHY_101 PHY_23/VGND PHY_21/VPWR sky130_fd_sc_hd__tapvpwrvgnd_1
XFILLER_30_197 _15_/VGND _13_/VPWR sky130_fd_sc_hd__fill_1
XPHY_3 _08_/VGND _07_/VPWR sky130_fd_sc_hd__decap_3
XFILLER_7_52 PHY_94/VGND PHY_17/VPWR sky130_fd_sc_hd__decap_4
XFILLER_21_164 PHY_43/VGND PHY_45/VPWR sky130_fd_sc_hd__decap_12
XFILLER_12_131 PHY_27/VGND PHY_25/VPWR sky130_fd_sc_hd__fill_2
XANTENNA_mem_right_ipin_4.sc_dff_compact_2_.sky130_fd_sc_hd__dfrbp_1_D mem_right_ipin_4.sc_dff_compact_1_.sky130_fd_sc_hd__dfrbp_1/Q
+ PHY_94/VGND PHY_17/VPWR sky130_fd_sc_hd__diode_2
XFILLER_32_93 _22_/VGND _22_/VPWR sky130_fd_sc_hd__decap_12
XFILLER_12_197 PHY_27/VGND PHY_25/VPWR sky130_fd_sc_hd__fill_1
XFILLER_8_146 PHY_19/VGND PHY_17/VPWR sky130_fd_sc_hd__decap_6
XFILLER_2_119 _09_/VGND _07_/VPWR sky130_fd_sc_hd__fill_2
XFILLER_13_62 PHY_27/VGND PHY_26/VPWR sky130_fd_sc_hd__decap_3
XFILLER_1_196 _08_/VGND _07_/VPWR sky130_fd_sc_hd__fill_2
XFILLER_1_163 _08_/VGND _07_/VPWR sky130_fd_sc_hd__fill_2
XFILLER_18_29 PHY_39/VGND PHY_37/VPWR sky130_fd_sc_hd__fill_2
XFILLER_1_7 _08_/VGND _07_/VPWR sky130_fd_sc_hd__fill_1
XANTENNA_mem_right_ipin_5.sc_dff_compact_0_.sky130_fd_sc_hd__dfrbp_1_D mem_right_ipin_4.sc_dff_compact_5_.sky130_fd_sc_hd__dfrbp_1/Q
+ PHY_94/VGND PHY_13/VPWR sky130_fd_sc_hd__diode_2
X_23_ chany_in_5_ chany_out_5_ _15_/VGND _13_/VPWR sky130_fd_sc_hd__buf_2
XFILLER_1_10 _08_/VGND _07_/VPWR sky130_fd_sc_hd__fill_2
XANTENNA_mem_right_ipin_4.sc_dff_compact_5_.sky130_fd_sc_hd__dfrbp_1_D mem_right_ipin_4.sc_dff_compact_4_.sky130_fd_sc_hd__dfrbp_1/Q
+ _09_/VGND _00_/VPWR sky130_fd_sc_hd__diode_2
XFILLER_33_195 _22_/VGND PHY_66/VPWR sky130_fd_sc_hd__decap_3
XFILLER_25_3 _11_/VGND _18_/VPWR sky130_fd_sc_hd__decap_8