* NGSPICE file created from cbx_1__0_.ext - technology: sky130A

* Black-box entry subcircuit for sky130_fd_sc_hd__fill_2 abstract view
.subckt sky130_fd_sc_hd__fill_2 VGND VPWR
.ends

* Black-box entry subcircuit for sky130_fd_sc_hd__decap_12 abstract view
.subckt sky130_fd_sc_hd__decap_12 VGND VPWR
.ends

* Black-box entry subcircuit for sky130_fd_sc_hd__decap_8 abstract view
.subckt sky130_fd_sc_hd__decap_8 VGND VPWR
.ends

* Black-box entry subcircuit for sky130_fd_sc_hd__dfrbp_1 abstract view
.subckt sky130_fd_sc_hd__dfrbp_1 D Q Q_N RESET_B CLK VGND VPWR
.ends

* Black-box entry subcircuit for sky130_fd_sc_hd__decap_3 abstract view
.subckt sky130_fd_sc_hd__decap_3 VGND VPWR
.ends

* Black-box entry subcircuit for sky130_fd_sc_hd__decap_6 abstract view
.subckt sky130_fd_sc_hd__decap_6 VGND VPWR
.ends

* Black-box entry subcircuit for sky130_fd_sc_hd__diode_2 abstract view
.subckt sky130_fd_sc_hd__diode_2 DIODE VGND VPWR
.ends

* Black-box entry subcircuit for sky130_fd_sc_hd__clkbuf_1 abstract view
.subckt sky130_fd_sc_hd__clkbuf_1 A X VGND VPWR
.ends

* Black-box entry subcircuit for sky130_fd_sc_hd__fill_1 abstract view
.subckt sky130_fd_sc_hd__fill_1 VGND VPWR
.ends

* Black-box entry subcircuit for sky130_fd_sc_hd__decap_4 abstract view
.subckt sky130_fd_sc_hd__decap_4 VGND VPWR
.ends

* Black-box entry subcircuit for sky130_fd_sc_hd__buf_2 abstract view
.subckt sky130_fd_sc_hd__buf_2 A X VGND VPWR
.ends

* Black-box entry subcircuit for sky130_fd_sc_hd__tapvpwrvgnd_1 abstract view
.subckt sky130_fd_sc_hd__tapvpwrvgnd_1 VGND VPWR
.ends

* Black-box entry subcircuit for sky130_fd_sc_hd__conb_1 abstract view
.subckt sky130_fd_sc_hd__conb_1 HI LO VGND VPWR
.ends

* Black-box entry subcircuit for sky130_fd_sc_hd__clkbuf_16 abstract view
.subckt sky130_fd_sc_hd__clkbuf_16 A X VGND VPWR
.ends

.subckt cbx_1__0_ bottom_grid_pin_0_ bottom_grid_pin_10_ bottom_grid_pin_12_ bottom_grid_pin_14_
+ bottom_grid_pin_2_ bottom_grid_pin_4_ bottom_grid_pin_6_ bottom_grid_pin_8_ ccff_head
+ ccff_tail chanx_in_0_ chanx_in_10_ chanx_in_11_ chanx_in_12_ chanx_in_13_ chanx_in_14_
+ chanx_in_15_ chanx_in_16_ chanx_in_17_ chanx_in_1_ chanx_in_2_ chanx_in_3_ chanx_in_4_
+ chanx_in_5_ chanx_in_6_ chanx_in_7_ chanx_in_8_ chanx_in_9_ chanx_out_0_ chanx_out_10_
+ chanx_out_11_ chanx_out_12_ chanx_out_13_ chanx_out_14_ chanx_out_15_ chanx_out_16_
+ chanx_out_17_ chanx_out_1_ chanx_out_2_ chanx_out_3_ chanx_out_4_ chanx_out_5_ chanx_out_6_
+ chanx_out_7_ chanx_out_8_ chanx_out_9_ pReset prog_clk top_grid_pin_14_ top_grid_pin_2_
+ top_grid_pin_6_ VPWR VGND
XFILLER_13_199 VGND VPWR sky130_fd_sc_hd__fill_2
XFILLER_13_188 VGND VPWR sky130_fd_sc_hd__fill_2
XFILLER_13_166 VGND VPWR sky130_fd_sc_hd__decap_12
XFILLER_13_133 VGND VPWR sky130_fd_sc_hd__decap_8
XFILLER_13_111 VGND VPWR sky130_fd_sc_hd__fill_2
Xmem_top_ipin_0.sc_dff_compact_4_.sky130_fd_sc_hd__dfrbp_1 mem_top_ipin_0.sc_dff_compact_4_.sky130_fd_sc_hd__dfrbp_1/D
+ mem_top_ipin_0.sc_dff_compact_4_.sky130_fd_sc_hd__dfrbp_1/Q mem_top_ipin_0.sc_dff_compact_4_.sky130_fd_sc_hd__dfrbp_1/Q_N
+ pReset clkbuf_3_3_0_prog_clk/X VGND VPWR sky130_fd_sc_hd__dfrbp_1
Xmem_bottom_ipin_2.sc_dff_compact_5_.sky130_fd_sc_hd__dfrbp_1 mem_bottom_ipin_2.sc_dff_compact_4_.sky130_fd_sc_hd__dfrbp_1/Q
+ mem_top_ipin_0.sc_dff_compact_0_.sky130_fd_sc_hd__dfrbp_1/D mem_bottom_ipin_2.sc_dff_compact_5_.sky130_fd_sc_hd__dfrbp_1/Q_N
+ pReset clkbuf_3_3_0_prog_clk/X VGND VPWR sky130_fd_sc_hd__dfrbp_1
XFILLER_3_89 VGND VPWR sky130_fd_sc_hd__fill_2
XFILLER_12_76 VGND VPWR sky130_fd_sc_hd__decap_12
XFILLER_12_32 VGND VPWR sky130_fd_sc_hd__fill_2
XFILLER_10_158 VGND VPWR sky130_fd_sc_hd__decap_12
XFILLER_10_125 VGND VPWR sky130_fd_sc_hd__fill_2
XFILLER_6_118 VGND VPWR sky130_fd_sc_hd__decap_12
XFILLER_5_195 VGND VPWR sky130_fd_sc_hd__fill_2
XFILLER_5_184 VGND VPWR sky130_fd_sc_hd__decap_8
Xmem_bottom_ipin_0.sc_dff_compact_0_.sky130_fd_sc_hd__dfrbp_1 ccff_head mem_bottom_ipin_0.sc_dff_compact_1_.sky130_fd_sc_hd__dfrbp_1/D
+ mem_bottom_ipin_0.sc_dff_compact_0_.sky130_fd_sc_hd__dfrbp_1/Q_N pReset clkbuf_3_2_0_prog_clk/X
+ VGND VPWR sky130_fd_sc_hd__dfrbp_1
XFILLER_14_272 VGND VPWR sky130_fd_sc_hd__decap_3
XFILLER_9_55 VGND VPWR sky130_fd_sc_hd__decap_6
XFILLER_0_46 VGND VPWR sky130_fd_sc_hd__fill_2
XFILLER_2_154 VGND VPWR sky130_fd_sc_hd__fill_2
XANTENNA_clkbuf_2_1_0_prog_clk_A clkbuf_2_1_0_prog_clk/A VGND VPWR sky130_fd_sc_hd__diode_2
Xclkbuf_3_4_0_prog_clk clkbuf_3_5_0_prog_clk/A clkbuf_3_4_0_prog_clk/X VGND VPWR sky130_fd_sc_hd__clkbuf_1
XANTENNA_mem_top_ipin_0.sc_dff_compact_2_.sky130_fd_sc_hd__dfrbp_1_D mem_top_ipin_0.sc_dff_compact_2_.sky130_fd_sc_hd__dfrbp_1/D
+ VGND VPWR sky130_fd_sc_hd__diode_2
XFILLER_11_253 VGND VPWR sky130_fd_sc_hd__decap_3
XFILLER_7_235 VGND VPWR sky130_fd_sc_hd__decap_8
XFILLER_4_249 VGND VPWR sky130_fd_sc_hd__decap_12
XFILLER_13_3 VGND VPWR sky130_fd_sc_hd__decap_6
XANTENNA_mem_top_ipin_0.sc_dff_compact_5_.sky130_fd_sc_hd__dfrbp_1_CLK clkbuf_3_3_0_prog_clk/X
+ VGND VPWR sky130_fd_sc_hd__diode_2
XFILLER_6_89 VGND VPWR sky130_fd_sc_hd__decap_3
XFILLER_15_32 VGND VPWR sky130_fd_sc_hd__decap_12
XFILLER_0_230 VGND VPWR sky130_fd_sc_hd__decap_12
XFILLER_0_274 VGND VPWR sky130_fd_sc_hd__fill_1
XFILLER_0_296 VGND VPWR sky130_fd_sc_hd__fill_1
XFILLER_10_329 VGND VPWR sky130_fd_sc_hd__fill_1
XFILLER_13_178 VGND VPWR sky130_fd_sc_hd__fill_1
XFILLER_13_123 VGND VPWR sky130_fd_sc_hd__fill_2
XFILLER_9_127 VGND VPWR sky130_fd_sc_hd__decap_12
XANTENNA_mem_top_ipin_1.sc_dff_compact_0_.sky130_fd_sc_hd__dfrbp_1_D mem_top_ipin_0.sc_dff_compact_5_.sky130_fd_sc_hd__dfrbp_1/Q
+ VGND VPWR sky130_fd_sc_hd__diode_2
XFILLER_12_99 VGND VPWR sky130_fd_sc_hd__fill_1
XFILLER_12_11 VGND VPWR sky130_fd_sc_hd__fill_2
XANTENNA_mem_top_ipin_0.sc_dff_compact_5_.sky130_fd_sc_hd__dfrbp_1_D mem_top_ipin_0.sc_dff_compact_4_.sky130_fd_sc_hd__dfrbp_1/Q
+ VGND VPWR sky130_fd_sc_hd__diode_2
XFILLER_15_218 VGND VPWR sky130_fd_sc_hd__decap_12
XFILLER_9_89 VGND VPWR sky130_fd_sc_hd__fill_2
XFILLER_9_78 VGND VPWR sky130_fd_sc_hd__decap_4
XANTENNA_mem_bottom_ipin_1.sc_dff_compact_1_.sky130_fd_sc_hd__dfrbp_1_RESET_B pReset
+ VGND VPWR sky130_fd_sc_hd__diode_2
XANTENNA_mem_bottom_ipin_1.sc_dff_compact_0_.sky130_fd_sc_hd__dfrbp_1_CLK clkbuf_3_0_0_prog_clk/X
+ VGND VPWR sky130_fd_sc_hd__diode_2
XANTENNA_mem_bottom_ipin_2.sc_dff_compact_1_.sky130_fd_sc_hd__dfrbp_1_CLK clkbuf_3_0_0_prog_clk/X
+ VGND VPWR sky130_fd_sc_hd__diode_2
XFILLER_6_57 VGND VPWR sky130_fd_sc_hd__decap_12
XFILLER_3_261 VGND VPWR sky130_fd_sc_hd__fill_1
XFILLER_3_272 VGND VPWR sky130_fd_sc_hd__fill_2
XFILLER_15_44 VGND VPWR sky130_fd_sc_hd__decap_12
XANTENNA_mem_top_ipin_1.sc_dff_compact_3_.sky130_fd_sc_hd__dfrbp_1_D mem_top_ipin_1.sc_dff_compact_2_.sky130_fd_sc_hd__dfrbp_1/Q
+ VGND VPWR sky130_fd_sc_hd__diode_2
XFILLER_0_242 VGND VPWR sky130_fd_sc_hd__decap_6
XFILLER_0_264 VGND VPWR sky130_fd_sc_hd__fill_2
Xmem_top_ipin_5.sc_dff_compact_1_.sky130_fd_sc_hd__dfrbp_1 mem_top_ipin_5.sc_dff_compact_0_.sky130_fd_sc_hd__dfrbp_1/Q
+ mem_top_ipin_5.sc_dff_compact_2_.sky130_fd_sc_hd__dfrbp_1/D mem_top_ipin_5.sc_dff_compact_1_.sky130_fd_sc_hd__dfrbp_1/Q_N
+ pReset clkbuf_3_4_0_prog_clk/X VGND VPWR sky130_fd_sc_hd__dfrbp_1
XFILLER_13_157 VGND VPWR sky130_fd_sc_hd__decap_6
XFILLER_9_139 VGND VPWR sky130_fd_sc_hd__decap_4
XFILLER_5_301 VGND VPWR sky130_fd_sc_hd__decap_4
Xmem_top_ipin_2.sc_dff_compact_2_.sky130_fd_sc_hd__dfrbp_1 mem_top_ipin_2.sc_dff_compact_1_.sky130_fd_sc_hd__dfrbp_1/Q
+ mem_top_ipin_2.sc_dff_compact_3_.sky130_fd_sc_hd__dfrbp_1/D mem_top_ipin_2.sc_dff_compact_2_.sky130_fd_sc_hd__dfrbp_1/Q_N
+ pReset clkbuf_3_1_0_prog_clk/X VGND VPWR sky130_fd_sc_hd__dfrbp_1
XANTENNA_mem_top_ipin_4.sc_dff_compact_1_.sky130_fd_sc_hd__dfrbp_1_CLK clkbuf_3_7_0_prog_clk/X
+ VGND VPWR sky130_fd_sc_hd__diode_2
XANTENNA_mem_top_ipin_3.sc_dff_compact_0_.sky130_fd_sc_hd__dfrbp_1_CLK clkbuf_3_6_0_prog_clk/X
+ VGND VPWR sky130_fd_sc_hd__diode_2
XFILLER_5_175 VGND VPWR sky130_fd_sc_hd__fill_2
XFILLER_5_142 VGND VPWR sky130_fd_sc_hd__fill_2
XANTENNA_mem_top_ipin_5.sc_dff_compact_2_.sky130_fd_sc_hd__dfrbp_1_CLK clkbuf_3_5_0_prog_clk/X
+ VGND VPWR sky130_fd_sc_hd__diode_2
XANTENNA_mem_top_ipin_2.sc_dff_compact_1_.sky130_fd_sc_hd__dfrbp_1_D mem_top_ipin_2.sc_dff_compact_0_.sky130_fd_sc_hd__dfrbp_1/Q
+ VGND VPWR sky130_fd_sc_hd__diode_2
XFILLER_4_90 VGND VPWR sky130_fd_sc_hd__fill_2
XANTENNA_mem_top_ipin_7.sc_dff_compact_4_.sky130_fd_sc_hd__dfrbp_1_CLK clkbuf_3_7_0_prog_clk/X
+ VGND VPWR sky130_fd_sc_hd__diode_2
XANTENNA_mem_top_ipin_6.sc_dff_compact_3_.sky130_fd_sc_hd__dfrbp_1_CLK clkbuf_3_5_0_prog_clk/X
+ VGND VPWR sky130_fd_sc_hd__diode_2
XFILLER_0_15 VGND VPWR sky130_fd_sc_hd__decap_4
XFILLER_2_101 VGND VPWR sky130_fd_sc_hd__decap_4
XFILLER_2_134 VGND VPWR sky130_fd_sc_hd__decap_4
XFILLER_3_3 VGND VPWR sky130_fd_sc_hd__decap_12
XFILLER_11_266 VGND VPWR sky130_fd_sc_hd__fill_2
XFILLER_11_200 VGND VPWR sky130_fd_sc_hd__fill_2
XFILLER_7_259 VGND VPWR sky130_fd_sc_hd__fill_2
XANTENNA_clkbuf_1_0_0_prog_clk_A clkbuf_0_prog_clk/X VGND VPWR sky130_fd_sc_hd__diode_2
XANTENNA_mem_top_ipin_7.sc_dff_compact_0_.sky130_fd_sc_hd__dfrbp_1_RESET_B pReset
+ VGND VPWR sky130_fd_sc_hd__diode_2
XFILLER_6_69 VGND VPWR sky130_fd_sc_hd__decap_12
XFILLER_15_56 VGND VPWR sky130_fd_sc_hd__decap_6
XFILLER_13_306 VGND VPWR sky130_fd_sc_hd__fill_2
Xclkbuf_2_1_0_prog_clk clkbuf_2_1_0_prog_clk/A clkbuf_2_1_0_prog_clk/X VGND VPWR sky130_fd_sc_hd__clkbuf_1
XANTENNA_mem_top_ipin_2.sc_dff_compact_4_.sky130_fd_sc_hd__dfrbp_1_D mem_top_ipin_2.sc_dff_compact_3_.sky130_fd_sc_hd__dfrbp_1/Q
+ VGND VPWR sky130_fd_sc_hd__diode_2
XFILLER_3_15 VGND VPWR sky130_fd_sc_hd__fill_1
XFILLER_3_26 VGND VPWR sky130_fd_sc_hd__fill_2
XFILLER_3_59 VGND VPWR sky130_fd_sc_hd__fill_2
XANTENNA_mem_bottom_ipin_0.sc_dff_compact_1_.sky130_fd_sc_hd__dfrbp_1_RESET_B pReset
+ VGND VPWR sky130_fd_sc_hd__diode_2
XFILLER_12_57 VGND VPWR sky130_fd_sc_hd__decap_4
XFILLER_5_121 VGND VPWR sky130_fd_sc_hd__fill_1
XANTENNA_mem_bottom_ipin_2.sc_dff_compact_2_.sky130_fd_sc_hd__dfrbp_1_RESET_B pReset
+ VGND VPWR sky130_fd_sc_hd__diode_2
XANTENNA__12__A chanx_in_10_ VGND VPWR sky130_fd_sc_hd__diode_2
XFILLER_0_38 VGND VPWR sky130_fd_sc_hd__fill_2
XFILLER_0_27 VGND VPWR sky130_fd_sc_hd__decap_4
XFILLER_14_286 VGND VPWR sky130_fd_sc_hd__fill_2
XFILLER_14_231 VGND VPWR sky130_fd_sc_hd__fill_1
XFILLER_9_47 VGND VPWR sky130_fd_sc_hd__fill_2
XANTENNA_mem_top_ipin_3.sc_dff_compact_2_.sky130_fd_sc_hd__dfrbp_1_D mem_top_ipin_3.sc_dff_compact_2_.sky130_fd_sc_hd__dfrbp_1/D
+ VGND VPWR sky130_fd_sc_hd__diode_2
XFILLER_11_245 VGND VPWR sky130_fd_sc_hd__decap_8
XFILLER_7_227 VGND VPWR sky130_fd_sc_hd__fill_2
XFILLER_1_81 VGND VPWR sky130_fd_sc_hd__fill_2
XFILLER_4_219 VGND VPWR sky130_fd_sc_hd__fill_2
Xclkbuf_3_3_0_prog_clk clkbuf_2_1_0_prog_clk/X clkbuf_3_3_0_prog_clk/X VGND VPWR sky130_fd_sc_hd__clkbuf_1
XFILLER_6_26 VGND VPWR sky130_fd_sc_hd__decap_4
XFILLER_6_15 VGND VPWR sky130_fd_sc_hd__decap_4
XFILLER_13_329 VGND VPWR sky130_fd_sc_hd__fill_1
Xmem_top_ipin_6.sc_dff_compact_5_.sky130_fd_sc_hd__dfrbp_1 mem_top_ipin_6.sc_dff_compact_4_.sky130_fd_sc_hd__dfrbp_1/Q
+ mem_top_ipin_6.sc_dff_compact_5_.sky130_fd_sc_hd__dfrbp_1/Q mem_top_ipin_6.sc_dff_compact_5_.sky130_fd_sc_hd__dfrbp_1/Q_N
+ pReset clkbuf_3_7_0_prog_clk/X VGND VPWR sky130_fd_sc_hd__dfrbp_1
XFILLER_0_277 VGND VPWR sky130_fd_sc_hd__fill_2
XANTENNA__20__A chanx_in_1_ VGND VPWR sky130_fd_sc_hd__diode_2
XFILLER_11_3 VGND VPWR sky130_fd_sc_hd__decap_6
XFILLER_13_115 VGND VPWR sky130_fd_sc_hd__fill_2
XANTENNA__15__A chanx_in_13_ VGND VPWR sky130_fd_sc_hd__diode_2
XANTENNA_mem_top_ipin_4.sc_dff_compact_0_.sky130_fd_sc_hd__dfrbp_1_D mem_top_ipin_3.sc_dff_compact_5_.sky130_fd_sc_hd__dfrbp_1/Q
+ VGND VPWR sky130_fd_sc_hd__diode_2
XFILLER_9_119 VGND VPWR sky130_fd_sc_hd__decap_3
XFILLER_10_129 VGND VPWR sky130_fd_sc_hd__decap_12
XFILLER_8_152 VGND VPWR sky130_fd_sc_hd__fill_1
XANTENNA_mem_top_ipin_3.sc_dff_compact_5_.sky130_fd_sc_hd__dfrbp_1_D mem_top_ipin_3.sc_dff_compact_4_.sky130_fd_sc_hd__dfrbp_1/Q
+ VGND VPWR sky130_fd_sc_hd__diode_2
Xmem_top_ipin_4.sc_dff_compact_0_.sky130_fd_sc_hd__dfrbp_1 mem_top_ipin_3.sc_dff_compact_5_.sky130_fd_sc_hd__dfrbp_1/Q
+ mem_top_ipin_4.sc_dff_compact_0_.sky130_fd_sc_hd__dfrbp_1/Q mem_top_ipin_4.sc_dff_compact_0_.sky130_fd_sc_hd__dfrbp_1/Q_N
+ pReset clkbuf_3_6_0_prog_clk/X VGND VPWR sky130_fd_sc_hd__dfrbp_1
XFILLER_5_100 VGND VPWR sky130_fd_sc_hd__decap_3
XFILLER_5_199 VGND VPWR sky130_fd_sc_hd__fill_2
Xmem_top_ipin_1.sc_dff_compact_1_.sky130_fd_sc_hd__dfrbp_1 mem_top_ipin_1.sc_dff_compact_0_.sky130_fd_sc_hd__dfrbp_1/Q
+ mem_top_ipin_1.sc_dff_compact_1_.sky130_fd_sc_hd__dfrbp_1/Q mem_top_ipin_1.sc_dff_compact_1_.sky130_fd_sc_hd__dfrbp_1/Q_N
+ pReset clkbuf_3_2_0_prog_clk/X VGND VPWR sky130_fd_sc_hd__dfrbp_1
XFILLER_4_70 VGND VPWR sky130_fd_sc_hd__decap_12
XFILLER_14_276 VGND VPWR sky130_fd_sc_hd__fill_2
XFILLER_14_210 VGND VPWR sky130_fd_sc_hd__decap_4
XFILLER_9_15 VGND VPWR sky130_fd_sc_hd__fill_1
Xmem_bottom_ipin_0.sc_dff_compact_3_.sky130_fd_sc_hd__dfrbp_1 mem_bottom_ipin_0.sc_dff_compact_2_.sky130_fd_sc_hd__dfrbp_1/Q
+ mem_bottom_ipin_0.sc_dff_compact_3_.sky130_fd_sc_hd__dfrbp_1/Q mem_bottom_ipin_0.sc_dff_compact_3_.sky130_fd_sc_hd__dfrbp_1/Q_N
+ pReset clkbuf_3_2_0_prog_clk/X VGND VPWR sky130_fd_sc_hd__dfrbp_1
XANTENNA_mem_top_ipin_6.sc_dff_compact_0_.sky130_fd_sc_hd__dfrbp_1_RESET_B pReset
+ VGND VPWR sky130_fd_sc_hd__diode_2
XANTENNA__23__A chanx_in_4_ VGND VPWR sky130_fd_sc_hd__diode_2
X_28_ chanx_in_9_ chanx_out_9_ VGND VPWR sky130_fd_sc_hd__buf_2
XANTENNA__18__A chanx_in_16_ VGND VPWR sky130_fd_sc_hd__diode_2
XFILLER_4_209 VGND VPWR sky130_fd_sc_hd__fill_1
XANTENNA_mem_top_ipin_4.sc_dff_compact_3_.sky130_fd_sc_hd__dfrbp_1_D mem_top_ipin_4.sc_dff_compact_2_.sky130_fd_sc_hd__dfrbp_1/Q
+ VGND VPWR sky130_fd_sc_hd__diode_2
XFILLER_3_264 VGND VPWR sky130_fd_sc_hd__fill_2
XFILLER_3_297 VGND VPWR sky130_fd_sc_hd__decap_8
XFILLER_8_301 VGND VPWR sky130_fd_sc_hd__decap_12
XFILLER_8_197 VGND VPWR sky130_fd_sc_hd__decap_3
XFILLER_8_164 VGND VPWR sky130_fd_sc_hd__fill_2
XANTENNA__26__A chanx_in_7_ VGND VPWR sky130_fd_sc_hd__diode_2
XFILLER_12_15 VGND VPWR sky130_fd_sc_hd__decap_3
XFILLER_5_123 VGND VPWR sky130_fd_sc_hd__decap_12
XANTENNA_mem_top_ipin_5.sc_dff_compact_1_.sky130_fd_sc_hd__dfrbp_1_D mem_top_ipin_5.sc_dff_compact_0_.sky130_fd_sc_hd__dfrbp_1/Q
+ VGND VPWR sky130_fd_sc_hd__diode_2
XFILLER_4_82 VGND VPWR sky130_fd_sc_hd__decap_6
XFILLER_4_93 VGND VPWR sky130_fd_sc_hd__fill_2
XFILLER_2_159 VGND VPWR sky130_fd_sc_hd__decap_12
XANTENNA_mem_top_ipin_0.sc_dff_compact_4_.sky130_fd_sc_hd__dfrbp_1_CLK clkbuf_3_3_0_prog_clk/X
+ VGND VPWR sky130_fd_sc_hd__diode_2
XFILLER_9_292 VGND VPWR sky130_fd_sc_hd__fill_2
XANTENNA_mem_top_ipin_1.sc_dff_compact_5_.sky130_fd_sc_hd__dfrbp_1_CLK clkbuf_3_1_0_prog_clk/X
+ VGND VPWR sky130_fd_sc_hd__diode_2
XFILLER_11_258 VGND VPWR sky130_fd_sc_hd__fill_2
XANTENNA_clkbuf_3_3_0_prog_clk_A clkbuf_2_1_0_prog_clk/X VGND VPWR sky130_fd_sc_hd__diode_2
XFILLER_1_3 VGND VPWR sky130_fd_sc_hd__decap_6
X_27_ chanx_in_8_ chanx_out_8_ VGND VPWR sky130_fd_sc_hd__buf_2
XFILLER_6_273 VGND VPWR sky130_fd_sc_hd__fill_2
XFILLER_6_240 VGND VPWR sky130_fd_sc_hd__decap_12
XANTENNA_mem_bottom_ipin_0.sc_dff_compact_0_.sky130_fd_sc_hd__dfrbp_1_D ccff_head
+ VGND VPWR sky130_fd_sc_hd__diode_2
XFILLER_3_243 VGND VPWR sky130_fd_sc_hd__fill_1
XFILLER_15_15 VGND VPWR sky130_fd_sc_hd__decap_12
XPHY_120 VGND VPWR sky130_fd_sc_hd__tapvpwrvgnd_1
XFILLER_8_313 VGND VPWR sky130_fd_sc_hd__decap_12
XFILLER_0_268 VGND VPWR sky130_fd_sc_hd__decap_6
XFILLER_15_180 VGND VPWR sky130_fd_sc_hd__decap_6
XPHY_0 VGND VPWR sky130_fd_sc_hd__decap_3
XANTENNA_mem_top_ipin_5.sc_dff_compact_4_.sky130_fd_sc_hd__dfrbp_1_D mem_top_ipin_5.sc_dff_compact_3_.sky130_fd_sc_hd__dfrbp_1/Q
+ VGND VPWR sky130_fd_sc_hd__diode_2
XFILLER_3_18 VGND VPWR sky130_fd_sc_hd__fill_2
XFILLER_8_154 VGND VPWR sky130_fd_sc_hd__fill_2
Xmem_top_ipin_5.sc_dff_compact_4_.sky130_fd_sc_hd__dfrbp_1 mem_top_ipin_5.sc_dff_compact_3_.sky130_fd_sc_hd__dfrbp_1/Q
+ mem_top_ipin_5.sc_dff_compact_5_.sky130_fd_sc_hd__dfrbp_1/D mem_top_ipin_5.sc_dff_compact_4_.sky130_fd_sc_hd__dfrbp_1/Q_N
+ pReset clkbuf_3_5_0_prog_clk/X VGND VPWR sky130_fd_sc_hd__dfrbp_1
XANTENNA_mem_bottom_ipin_2.sc_dff_compact_0_.sky130_fd_sc_hd__dfrbp_1_CLK clkbuf_3_0_0_prog_clk/X
+ VGND VPWR sky130_fd_sc_hd__diode_2
Xmem_top_ipin_2.sc_dff_compact_5_.sky130_fd_sc_hd__dfrbp_1 mem_top_ipin_2.sc_dff_compact_4_.sky130_fd_sc_hd__dfrbp_1/Q
+ mem_top_ipin_2.sc_dff_compact_5_.sky130_fd_sc_hd__dfrbp_1/Q mem_top_ipin_2.sc_dff_compact_5_.sky130_fd_sc_hd__dfrbp_1/Q_N
+ pReset clkbuf_3_4_0_prog_clk/X VGND VPWR sky130_fd_sc_hd__dfrbp_1
Xclkbuf_2_0_0_prog_clk clkbuf_2_1_0_prog_clk/A clkbuf_2_0_0_prog_clk/X VGND VPWR sky130_fd_sc_hd__clkbuf_1
XANTENNA_mem_top_ipin_5.sc_dff_compact_0_.sky130_fd_sc_hd__dfrbp_1_RESET_B pReset
+ VGND VPWR sky130_fd_sc_hd__diode_2
XFILLER_5_179 VGND VPWR sky130_fd_sc_hd__decap_4
XFILLER_5_146 VGND VPWR sky130_fd_sc_hd__fill_2
XFILLER_5_135 VGND VPWR sky130_fd_sc_hd__decap_4
XFILLER_13_70 VGND VPWR sky130_fd_sc_hd__decap_12
XANTENNA_mem_top_ipin_7.sc_dff_compact_1_.sky130_fd_sc_hd__dfrbp_1_RESET_B pReset
+ VGND VPWR sky130_fd_sc_hd__diode_2
XFILLER_2_105 VGND VPWR sky130_fd_sc_hd__fill_1
XANTENNA_mem_bottom_ipin_0.sc_dff_compact_3_.sky130_fd_sc_hd__dfrbp_1_D mem_bottom_ipin_0.sc_dff_compact_2_.sky130_fd_sc_hd__dfrbp_1/Q
+ VGND VPWR sky130_fd_sc_hd__diode_2
XANTENNA_mem_top_ipin_6.sc_dff_compact_2_.sky130_fd_sc_hd__dfrbp_1_D mem_top_ipin_6.sc_dff_compact_1_.sky130_fd_sc_hd__dfrbp_1/Q
+ VGND VPWR sky130_fd_sc_hd__diode_2
XFILLER_1_193 VGND VPWR sky130_fd_sc_hd__fill_1
XFILLER_11_204 VGND VPWR sky130_fd_sc_hd__fill_2
Xmem_bottom_ipin_2.sc_dff_compact_1_.sky130_fd_sc_hd__dfrbp_1 mem_bottom_ipin_2.sc_dff_compact_1_.sky130_fd_sc_hd__dfrbp_1/D
+ mem_bottom_ipin_2.sc_dff_compact_2_.sky130_fd_sc_hd__dfrbp_1/D mem_bottom_ipin_2.sc_dff_compact_1_.sky130_fd_sc_hd__dfrbp_1/Q_N
+ pReset clkbuf_3_0_0_prog_clk/X VGND VPWR sky130_fd_sc_hd__dfrbp_1
Xmem_top_ipin_0.sc_dff_compact_0_.sky130_fd_sc_hd__dfrbp_1 mem_top_ipin_0.sc_dff_compact_0_.sky130_fd_sc_hd__dfrbp_1/D
+ mem_top_ipin_0.sc_dff_compact_1_.sky130_fd_sc_hd__dfrbp_1/D mem_top_ipin_0.sc_dff_compact_0_.sky130_fd_sc_hd__dfrbp_1/Q_N
+ pReset clkbuf_3_3_0_prog_clk/X VGND VPWR sky130_fd_sc_hd__dfrbp_1
XFILLER_6_252 VGND VPWR sky130_fd_sc_hd__decap_12
X_26_ chanx_in_7_ chanx_out_7_ VGND VPWR sky130_fd_sc_hd__buf_2
XFILLER_1_73 VGND VPWR sky130_fd_sc_hd__decap_8
XFILLER_1_62 VGND VPWR sky130_fd_sc_hd__decap_3
XFILLER_13_9 VGND VPWR sky130_fd_sc_hd__fill_1
XFILLER_10_93 VGND VPWR sky130_fd_sc_hd__decap_4
XFILLER_3_233 VGND VPWR sky130_fd_sc_hd__fill_2
XFILLER_15_27 VGND VPWR sky130_fd_sc_hd__decap_4
XANTENNA_mem_bottom_ipin_0.sc_dff_compact_2_.sky130_fd_sc_hd__dfrbp_1_RESET_B pReset
+ VGND VPWR sky130_fd_sc_hd__diode_2
X_09_ _09_/HI bottom_grid_pin_0_ VGND VPWR sky130_fd_sc_hd__conb_1
XPHY_121 VGND VPWR sky130_fd_sc_hd__tapvpwrvgnd_1
XPHY_110 VGND VPWR sky130_fd_sc_hd__tapvpwrvgnd_1
XFILLER_8_325 VGND VPWR sky130_fd_sc_hd__decap_4
XFILLER_0_203 VGND VPWR sky130_fd_sc_hd__fill_2
XFILLER_15_192 VGND VPWR sky130_fd_sc_hd__decap_12
XANTENNA_mem_top_ipin_4.sc_dff_compact_0_.sky130_fd_sc_hd__dfrbp_1_CLK clkbuf_3_6_0_prog_clk/X
+ VGND VPWR sky130_fd_sc_hd__diode_2
XANTENNA_mem_top_ipin_7.sc_dff_compact_0_.sky130_fd_sc_hd__dfrbp_1_D mem_top_ipin_6.sc_dff_compact_5_.sky130_fd_sc_hd__dfrbp_1/Q
+ VGND VPWR sky130_fd_sc_hd__diode_2
XANTENNA_mem_bottom_ipin_2.sc_dff_compact_3_.sky130_fd_sc_hd__dfrbp_1_RESET_B pReset
+ VGND VPWR sky130_fd_sc_hd__diode_2
XPHY_1 VGND VPWR sky130_fd_sc_hd__decap_3
XANTENNA_mem_bottom_ipin_1.sc_dff_compact_1_.sky130_fd_sc_hd__dfrbp_1_D mem_bottom_ipin_1.sc_dff_compact_0_.sky130_fd_sc_hd__dfrbp_1/Q
+ VGND VPWR sky130_fd_sc_hd__diode_2
XANTENNA_mem_top_ipin_5.sc_dff_compact_1_.sky130_fd_sc_hd__dfrbp_1_CLK clkbuf_3_4_0_prog_clk/X
+ VGND VPWR sky130_fd_sc_hd__diode_2
XFILLER_13_129 VGND VPWR sky130_fd_sc_hd__fill_2
Xclkbuf_3_2_0_prog_clk clkbuf_2_1_0_prog_clk/X clkbuf_3_2_0_prog_clk/X VGND VPWR sky130_fd_sc_hd__clkbuf_1
XFILLER_7_94 VGND VPWR sky130_fd_sc_hd__fill_1
XFILLER_5_306 VGND VPWR sky130_fd_sc_hd__decap_12
XANTENNA_mem_top_ipin_6.sc_dff_compact_2_.sky130_fd_sc_hd__dfrbp_1_CLK clkbuf_3_5_0_prog_clk/X
+ VGND VPWR sky130_fd_sc_hd__diode_2
XFILLER_12_151 VGND VPWR sky130_fd_sc_hd__fill_2
XANTENNA_mem_top_ipin_7.sc_dff_compact_3_.sky130_fd_sc_hd__dfrbp_1_CLK clkbuf_3_7_0_prog_clk/X
+ VGND VPWR sky130_fd_sc_hd__diode_2
XFILLER_8_122 VGND VPWR sky130_fd_sc_hd__decap_12
XFILLER_12_28 VGND VPWR sky130_fd_sc_hd__decap_3
XANTENNA_mem_top_ipin_6.sc_dff_compact_5_.sky130_fd_sc_hd__dfrbp_1_D mem_top_ipin_6.sc_dff_compact_4_.sky130_fd_sc_hd__dfrbp_1/Q
+ VGND VPWR sky130_fd_sc_hd__diode_2
XFILLER_9_18 VGND VPWR sky130_fd_sc_hd__fill_2
XFILLER_13_82 VGND VPWR sky130_fd_sc_hd__fill_2
XFILLER_1_161 VGND VPWR sky130_fd_sc_hd__decap_8
XFILLER_6_264 VGND VPWR sky130_fd_sc_hd__decap_3
X_25_ chanx_in_6_ chanx_out_6_ VGND VPWR sky130_fd_sc_hd__buf_2
XANTENNA_mem_top_ipin_7.sc_dff_compact_3_.sky130_fd_sc_hd__dfrbp_1_D mem_top_ipin_7.sc_dff_compact_3_.sky130_fd_sc_hd__dfrbp_1/D
+ VGND VPWR sky130_fd_sc_hd__diode_2
XFILLER_1_85 VGND VPWR sky130_fd_sc_hd__fill_2
XFILLER_6_19 VGND VPWR sky130_fd_sc_hd__fill_1
XFILLER_3_245 VGND VPWR sky130_fd_sc_hd__decap_12
X_08_ _08_/HI bottom_grid_pin_10_ VGND VPWR sky130_fd_sc_hd__conb_1
XANTENNA_clkbuf_2_2_0_prog_clk_A clkbuf_2_3_0_prog_clk/A VGND VPWR sky130_fd_sc_hd__diode_2
XPHY_100 VGND VPWR sky130_fd_sc_hd__tapvpwrvgnd_1
XFILLER_0_215 VGND VPWR sky130_fd_sc_hd__fill_2
XPHY_111 VGND VPWR sky130_fd_sc_hd__tapvpwrvgnd_1
XPHY_2 VGND VPWR sky130_fd_sc_hd__decap_3
XFILLER_13_119 VGND VPWR sky130_fd_sc_hd__decap_3
XANTENNA_mem_top_ipin_4.sc_dff_compact_0_.sky130_fd_sc_hd__dfrbp_1_RESET_B pReset
+ VGND VPWR sky130_fd_sc_hd__diode_2
XFILLER_7_62 VGND VPWR sky130_fd_sc_hd__decap_12
XFILLER_7_51 VGND VPWR sky130_fd_sc_hd__fill_2
XFILLER_8_189 VGND VPWR sky130_fd_sc_hd__decap_8
XFILLER_8_134 VGND VPWR sky130_fd_sc_hd__decap_12
XFILLER_5_318 VGND VPWR sky130_fd_sc_hd__decap_12
Xmem_top_ipin_7.sc_dff_compact_2_.sky130_fd_sc_hd__dfrbp_1 mem_top_ipin_7.sc_dff_compact_1_.sky130_fd_sc_hd__dfrbp_1/Q
+ mem_top_ipin_7.sc_dff_compact_3_.sky130_fd_sc_hd__dfrbp_1/D mem_top_ipin_7.sc_dff_compact_2_.sky130_fd_sc_hd__dfrbp_1/Q_N
+ pReset clkbuf_3_7_0_prog_clk/X VGND VPWR sky130_fd_sc_hd__dfrbp_1
XANTENNA_mem_top_ipin_6.sc_dff_compact_1_.sky130_fd_sc_hd__dfrbp_1_RESET_B pReset
+ VGND VPWR sky130_fd_sc_hd__diode_2
XANTENNA_mem_bottom_ipin_2.sc_dff_compact_2_.sky130_fd_sc_hd__dfrbp_1_D mem_bottom_ipin_2.sc_dff_compact_2_.sky130_fd_sc_hd__dfrbp_1/D
+ VGND VPWR sky130_fd_sc_hd__diode_2
Xmem_top_ipin_4.sc_dff_compact_3_.sky130_fd_sc_hd__dfrbp_1 mem_top_ipin_4.sc_dff_compact_2_.sky130_fd_sc_hd__dfrbp_1/Q
+ mem_top_ipin_4.sc_dff_compact_3_.sky130_fd_sc_hd__dfrbp_1/Q mem_top_ipin_4.sc_dff_compact_3_.sky130_fd_sc_hd__dfrbp_1/Q_N
+ pReset clkbuf_3_4_0_prog_clk/X VGND VPWR sky130_fd_sc_hd__dfrbp_1
XFILLER_14_236 VGND VPWR sky130_fd_sc_hd__decap_8
XFILLER_1_184 VGND VPWR sky130_fd_sc_hd__fill_2
XFILLER_1_173 VGND VPWR sky130_fd_sc_hd__fill_2
Xmem_top_ipin_1.sc_dff_compact_4_.sky130_fd_sc_hd__dfrbp_1 mem_top_ipin_1.sc_dff_compact_3_.sky130_fd_sc_hd__dfrbp_1/Q
+ mem_top_ipin_1.sc_dff_compact_4_.sky130_fd_sc_hd__dfrbp_1/Q mem_top_ipin_1.sc_dff_compact_4_.sky130_fd_sc_hd__dfrbp_1/Q_N
+ pReset clkbuf_3_1_0_prog_clk/X VGND VPWR sky130_fd_sc_hd__dfrbp_1
XFILLER_10_250 VGND VPWR sky130_fd_sc_hd__decap_12
XFILLER_6_276 VGND VPWR sky130_fd_sc_hd__fill_2
XFILLER_1_53 VGND VPWR sky130_fd_sc_hd__fill_2
X_24_ chanx_in_5_ chanx_out_5_ VGND VPWR sky130_fd_sc_hd__buf_2
XFILLER_3_257 VGND VPWR sky130_fd_sc_hd__decap_4
XFILLER_3_268 VGND VPWR sky130_fd_sc_hd__fill_2
Xmem_bottom_ipin_1.sc_dff_compact_0_.sky130_fd_sc_hd__dfrbp_1 mem_bottom_ipin_1.sc_dff_compact_0_.sky130_fd_sc_hd__dfrbp_1/D
+ mem_bottom_ipin_1.sc_dff_compact_0_.sky130_fd_sc_hd__dfrbp_1/Q mem_bottom_ipin_1.sc_dff_compact_0_.sky130_fd_sc_hd__dfrbp_1/Q_N
+ pReset clkbuf_3_0_0_prog_clk/X VGND VPWR sky130_fd_sc_hd__dfrbp_1
X_07_ _07_/HI bottom_grid_pin_12_ VGND VPWR sky130_fd_sc_hd__conb_1
XANTENNA_mem_bottom_ipin_2.sc_dff_compact_5_.sky130_fd_sc_hd__dfrbp_1_D mem_bottom_ipin_2.sc_dff_compact_4_.sky130_fd_sc_hd__dfrbp_1/Q
+ VGND VPWR sky130_fd_sc_hd__diode_2
XFILLER_0_249 VGND VPWR sky130_fd_sc_hd__decap_12
XPHY_112 VGND VPWR sky130_fd_sc_hd__tapvpwrvgnd_1
XFILLER_12_301 VGND VPWR sky130_fd_sc_hd__decap_12
XPHY_101 VGND VPWR sky130_fd_sc_hd__tapvpwrvgnd_1
XFILLER_7_74 VGND VPWR sky130_fd_sc_hd__decap_12
XPHY_3 VGND VPWR sky130_fd_sc_hd__decap_3
XFILLER_12_131 VGND VPWR sky130_fd_sc_hd__decap_12
XFILLER_8_146 VGND VPWR sky130_fd_sc_hd__decap_6
XFILLER_5_105 VGND VPWR sky130_fd_sc_hd__decap_12
XFILLER_14_248 VGND VPWR sky130_fd_sc_hd__decap_12
XFILLER_14_215 VGND VPWR sky130_fd_sc_hd__decap_12
XFILLER_13_62 VGND VPWR sky130_fd_sc_hd__fill_2
XFILLER_1_196 VGND VPWR sky130_fd_sc_hd__fill_2
XFILLER_9_296 VGND VPWR sky130_fd_sc_hd__decap_8
XFILLER_9_263 VGND VPWR sky130_fd_sc_hd__fill_2
XANTENNA_mem_bottom_ipin_0.sc_dff_compact_5_.sky130_fd_sc_hd__dfrbp_1_CLK clkbuf_3_0_0_prog_clk/X
+ VGND VPWR sky130_fd_sc_hd__diode_2
XFILLER_11_229 VGND VPWR sky130_fd_sc_hd__decap_12
X_23_ chanx_in_4_ chanx_out_4_ VGND VPWR sky130_fd_sc_hd__buf_2
XFILLER_10_273 VGND VPWR sky130_fd_sc_hd__fill_2
XFILLER_10_262 VGND VPWR sky130_fd_sc_hd__decap_4
XFILLER_10_74 VGND VPWR sky130_fd_sc_hd__fill_1
XFILLER_10_30 VGND VPWR sky130_fd_sc_hd__fill_1
XANTENNA_mem_top_ipin_3.sc_dff_compact_0_.sky130_fd_sc_hd__dfrbp_1_RESET_B pReset
+ VGND VPWR sky130_fd_sc_hd__diode_2
X_06_ _06_/HI bottom_grid_pin_14_ VGND VPWR sky130_fd_sc_hd__conb_1
XPHY_113 VGND VPWR sky130_fd_sc_hd__tapvpwrvgnd_1
XPHY_102 VGND VPWR sky130_fd_sc_hd__tapvpwrvgnd_1
XFILLER_12_313 VGND VPWR sky130_fd_sc_hd__decap_12
XANTENNA_mem_top_ipin_5.sc_dff_compact_1_.sky130_fd_sc_hd__dfrbp_1_RESET_B pReset
+ VGND VPWR sky130_fd_sc_hd__diode_2
XFILLER_7_97 VGND VPWR sky130_fd_sc_hd__fill_2
XFILLER_7_86 VGND VPWR sky130_fd_sc_hd__decap_8
XPHY_4 VGND VPWR sky130_fd_sc_hd__decap_3
XANTENNA_mem_top_ipin_7.sc_dff_compact_2_.sky130_fd_sc_hd__dfrbp_1_RESET_B pReset
+ VGND VPWR sky130_fd_sc_hd__diode_2
XANTENNA_clkbuf_1_1_0_prog_clk_A clkbuf_0_prog_clk/X VGND VPWR sky130_fd_sc_hd__diode_2
XFILLER_12_154 VGND VPWR sky130_fd_sc_hd__decap_12
XFILLER_12_143 VGND VPWR sky130_fd_sc_hd__decap_8
XANTENNA_mem_top_ipin_0.sc_dff_compact_3_.sky130_fd_sc_hd__dfrbp_1_CLK clkbuf_3_3_0_prog_clk/X
+ VGND VPWR sky130_fd_sc_hd__diode_2
XFILLER_8_158 VGND VPWR sky130_fd_sc_hd__decap_4
XANTENNA_mem_top_ipin_2.sc_dff_compact_5_.sky130_fd_sc_hd__dfrbp_1_CLK clkbuf_3_4_0_prog_clk/X
+ VGND VPWR sky130_fd_sc_hd__diode_2
XANTENNA_mem_top_ipin_1.sc_dff_compact_4_.sky130_fd_sc_hd__dfrbp_1_CLK clkbuf_3_1_0_prog_clk/X
+ VGND VPWR sky130_fd_sc_hd__diode_2
XFILLER_5_139 VGND VPWR sky130_fd_sc_hd__fill_1
XFILLER_1_301 VGND VPWR sky130_fd_sc_hd__decap_4
XFILLER_1_312 VGND VPWR sky130_fd_sc_hd__fill_2
XFILLER_5_117 VGND VPWR sky130_fd_sc_hd__decap_4
Xclkbuf_3_1_0_prog_clk clkbuf_2_0_0_prog_clk/X clkbuf_3_1_0_prog_clk/X VGND VPWR sky130_fd_sc_hd__clkbuf_1
XFILLER_2_109 VGND VPWR sky130_fd_sc_hd__fill_2
XFILLER_4_32 VGND VPWR sky130_fd_sc_hd__decap_3
XFILLER_14_227 VGND VPWR sky130_fd_sc_hd__decap_4
XFILLER_13_41 VGND VPWR sky130_fd_sc_hd__fill_2
XFILLER_1_131 VGND VPWR sky130_fd_sc_hd__decap_3
Xmem_top_ipin_6.sc_dff_compact_1_.sky130_fd_sc_hd__dfrbp_1 mem_top_ipin_6.sc_dff_compact_0_.sky130_fd_sc_hd__dfrbp_1/Q
+ mem_top_ipin_6.sc_dff_compact_1_.sky130_fd_sc_hd__dfrbp_1/Q mem_top_ipin_6.sc_dff_compact_1_.sky130_fd_sc_hd__dfrbp_1/Q_N
+ pReset clkbuf_3_5_0_prog_clk/X VGND VPWR sky130_fd_sc_hd__dfrbp_1
XFILLER_9_242 VGND VPWR sky130_fd_sc_hd__fill_2
XANTENNA_mem_bottom_ipin_0.sc_dff_compact_3_.sky130_fd_sc_hd__dfrbp_1_RESET_B pReset
+ VGND VPWR sky130_fd_sc_hd__diode_2
Xmem_top_ipin_3.sc_dff_compact_2_.sky130_fd_sc_hd__dfrbp_1 mem_top_ipin_3.sc_dff_compact_2_.sky130_fd_sc_hd__dfrbp_1/D
+ mem_top_ipin_3.sc_dff_compact_3_.sky130_fd_sc_hd__dfrbp_1/D mem_top_ipin_3.sc_dff_compact_2_.sky130_fd_sc_hd__dfrbp_1/Q_N
+ pReset clkbuf_3_6_0_prog_clk/X VGND VPWR sky130_fd_sc_hd__dfrbp_1
X_22_ chanx_in_3_ chanx_out_3_ VGND VPWR sky130_fd_sc_hd__buf_2
XANTENNA_mem_bottom_ipin_2.sc_dff_compact_4_.sky130_fd_sc_hd__dfrbp_1_RESET_B pReset
+ VGND VPWR sky130_fd_sc_hd__diode_2
XFILLER_1_22 VGND VPWR sky130_fd_sc_hd__fill_2
Xmem_top_ipin_0.sc_dff_compact_3_.sky130_fd_sc_hd__dfrbp_1 mem_top_ipin_0.sc_dff_compact_2_.sky130_fd_sc_hd__dfrbp_1/Q
+ mem_top_ipin_0.sc_dff_compact_4_.sky130_fd_sc_hd__dfrbp_1/D mem_top_ipin_0.sc_dff_compact_3_.sky130_fd_sc_hd__dfrbp_1/Q_N
+ pReset clkbuf_3_3_0_prog_clk/X VGND VPWR sky130_fd_sc_hd__dfrbp_1
Xmem_bottom_ipin_2.sc_dff_compact_4_.sky130_fd_sc_hd__dfrbp_1 mem_bottom_ipin_2.sc_dff_compact_4_.sky130_fd_sc_hd__dfrbp_1/D
+ mem_bottom_ipin_2.sc_dff_compact_4_.sky130_fd_sc_hd__dfrbp_1/Q mem_bottom_ipin_2.sc_dff_compact_4_.sky130_fd_sc_hd__dfrbp_1/Q_N
+ pReset clkbuf_3_2_0_prog_clk/X VGND VPWR sky130_fd_sc_hd__dfrbp_1
XFILLER_15_311 VGND VPWR sky130_fd_sc_hd__decap_12
XFILLER_10_97 VGND VPWR sky130_fd_sc_hd__fill_1
XFILLER_10_42 VGND VPWR sky130_fd_sc_hd__fill_1
XFILLER_3_204 VGND VPWR sky130_fd_sc_hd__fill_2
XFILLER_3_237 VGND VPWR sky130_fd_sc_hd__decap_6
X_05_ _05_/HI bottom_grid_pin_2_ VGND VPWR sky130_fd_sc_hd__conb_1
XPHY_114 VGND VPWR sky130_fd_sc_hd__tapvpwrvgnd_1
XPHY_103 VGND VPWR sky130_fd_sc_hd__tapvpwrvgnd_1
XFILLER_12_325 VGND VPWR sky130_fd_sc_hd__decap_4
XFILLER_8_329 VGND VPWR sky130_fd_sc_hd__fill_1
XFILLER_0_207 VGND VPWR sky130_fd_sc_hd__decap_8
XFILLER_0_218 VGND VPWR sky130_fd_sc_hd__decap_12
XFILLER_7_43 VGND VPWR sky130_fd_sc_hd__fill_2
XPHY_5 VGND VPWR sky130_fd_sc_hd__decap_3
XFILLER_12_166 VGND VPWR sky130_fd_sc_hd__decap_12
XFILLER_7_181 VGND VPWR sky130_fd_sc_hd__fill_2
XFILLER_4_151 VGND VPWR sky130_fd_sc_hd__fill_2
XFILLER_14_206 VGND VPWR sky130_fd_sc_hd__fill_2
XFILLER_13_86 VGND VPWR sky130_fd_sc_hd__fill_2