* NGSPICE file created from cbx_1__0_.ext - technology: sky130A

* Black-box entry subcircuit for sky130_fd_sc_hd__decap_6 abstract view
.subckt sky130_fd_sc_hd__decap_6 VGND VPWR
.ends

* Black-box entry subcircuit for sky130_fd_sc_hd__fill_1 abstract view
.subckt sky130_fd_sc_hd__fill_1 VGND VPWR
.ends

* Black-box entry subcircuit for sky130_fd_sc_hd__fill_2 abstract view
.subckt sky130_fd_sc_hd__fill_2 VGND VPWR
.ends

* Black-box entry subcircuit for sky130_fd_sc_hd__decap_4 abstract view
.subckt sky130_fd_sc_hd__decap_4 VGND VPWR
.ends

* Black-box entry subcircuit for sky130_fd_sc_hd__dfrbp_1 abstract view
.subckt sky130_fd_sc_hd__dfrbp_1 D Q Q_N RESET_B CLK VGND VPWR
.ends

* Black-box entry subcircuit for sky130_fd_sc_hd__decap_3 abstract view
.subckt sky130_fd_sc_hd__decap_3 VGND VPWR
.ends

* Black-box entry subcircuit for sky130_fd_sc_hd__decap_12 abstract view
.subckt sky130_fd_sc_hd__decap_12 VGND VPWR
.ends

* Black-box entry subcircuit for sky130_fd_sc_hd__diode_2 abstract view
.subckt sky130_fd_sc_hd__diode_2 DIODE VGND VPWR
.ends

* Black-box entry subcircuit for sky130_fd_sc_hd__clkbuf_1 abstract view
.subckt sky130_fd_sc_hd__clkbuf_1 A X VGND VPWR
.ends

* Black-box entry subcircuit for sky130_fd_sc_hd__decap_8 abstract view
.subckt sky130_fd_sc_hd__decap_8 VGND VPWR
.ends

* Black-box entry subcircuit for sky130_fd_sc_hd__buf_2 abstract view
.subckt sky130_fd_sc_hd__buf_2 A X VGND VPWR
.ends

* Black-box entry subcircuit for sky130_fd_sc_hd__tapvpwrvgnd_1 abstract view
.subckt sky130_fd_sc_hd__tapvpwrvgnd_1 VGND VPWR
.ends

* Black-box entry subcircuit for sky130_fd_sc_hd__conb_1 abstract view
.subckt sky130_fd_sc_hd__conb_1 HI LO VGND VPWR
.ends

* Black-box entry subcircuit for sky130_fd_sc_hd__clkbuf_16 abstract view
.subckt sky130_fd_sc_hd__clkbuf_16 A X VGND VPWR
.ends

.subckt cbx_1__0_ bottom_grid_pin_0_ bottom_grid_pin_10_ bottom_grid_pin_12_ bottom_grid_pin_14_
+ bottom_grid_pin_2_ bottom_grid_pin_4_ bottom_grid_pin_6_ bottom_grid_pin_8_ ccff_head
+ ccff_tail chanx_in_0_ chanx_in_10_ chanx_in_11_ chanx_in_12_ chanx_in_13_ chanx_in_14_
+ chanx_in_15_ chanx_in_16_ chanx_in_17_ chanx_in_1_ chanx_in_2_ chanx_in_3_ chanx_in_4_
+ chanx_in_5_ chanx_in_6_ chanx_in_7_ chanx_in_8_ chanx_in_9_ chanx_out_0_ chanx_out_10_
+ chanx_out_11_ chanx_out_12_ chanx_out_13_ chanx_out_14_ chanx_out_15_ chanx_out_16_
+ chanx_out_17_ chanx_out_1_ chanx_out_2_ chanx_out_3_ chanx_out_4_ chanx_out_5_ chanx_out_6_
+ chanx_out_7_ chanx_out_8_ chanx_out_9_ pReset prog_clk top_grid_pin_14_ top_grid_pin_2_
+ top_grid_pin_6_ VPWR VGND
XFILLER_13_188 VGND VPWR sky130_fd_sc_hd__decap_6
XFILLER_13_177 VGND VPWR sky130_fd_sc_hd__fill_1
XFILLER_13_144 VGND VPWR sky130_fd_sc_hd__fill_2
XFILLER_9_137 VGND VPWR sky130_fd_sc_hd__fill_2
XFILLER_3_56 VGND VPWR sky130_fd_sc_hd__decap_4
Xmem_bottom_ipin_2.sc_dff_compact_5_.sky130_fd_sc_hd__dfrbp_1 mem_bottom_ipin_2.sc_dff_compact_4_.sky130_fd_sc_hd__dfrbp_1/Q
+ mem_top_ipin_0.sc_dff_compact_0_.sky130_fd_sc_hd__dfrbp_1/D mem_bottom_ipin_2.sc_dff_compact_5_.sky130_fd_sc_hd__dfrbp_1/Q_N
+ pReset clkbuf_3_0_0_prog_clk/X VGND VPWR sky130_fd_sc_hd__dfrbp_1
Xmem_top_ipin_0.sc_dff_compact_4_.sky130_fd_sc_hd__dfrbp_1 mem_top_ipin_0.sc_dff_compact_3_.sky130_fd_sc_hd__dfrbp_1/Q
+ mem_top_ipin_0.sc_dff_compact_5_.sky130_fd_sc_hd__dfrbp_1/D mem_top_ipin_0.sc_dff_compact_4_.sky130_fd_sc_hd__dfrbp_1/Q_N
+ pReset clkbuf_3_1_0_prog_clk/X VGND VPWR sky130_fd_sc_hd__dfrbp_1
XFILLER_18_203 VGND VPWR sky130_fd_sc_hd__decap_4
XFILLER_12_65 VGND VPWR sky130_fd_sc_hd__decap_3
XFILLER_12_32 VGND VPWR sky130_fd_sc_hd__fill_2
XFILLER_6_118 VGND VPWR sky130_fd_sc_hd__decap_12
XFILLER_5_140 VGND VPWR sky130_fd_sc_hd__fill_2
XFILLER_5_184 VGND VPWR sky130_fd_sc_hd__decap_12
Xmem_bottom_ipin_0.sc_dff_compact_0_.sky130_fd_sc_hd__dfrbp_1 ccff_head mem_bottom_ipin_0.sc_dff_compact_0_.sky130_fd_sc_hd__dfrbp_1/Q
+ mem_bottom_ipin_0.sc_dff_compact_0_.sky130_fd_sc_hd__dfrbp_1/Q_N pReset clkbuf_3_0_0_prog_clk/X
+ VGND VPWR sky130_fd_sc_hd__dfrbp_1
XFILLER_2_154 VGND VPWR sky130_fd_sc_hd__fill_2
XFILLER_12_209 VGND VPWR sky130_fd_sc_hd__fill_1
XANTENNA_clkbuf_2_1_0_prog_clk_A clkbuf_2_1_0_prog_clk/A VGND VPWR sky130_fd_sc_hd__diode_2
Xclkbuf_3_4_0_prog_clk clkbuf_3_5_0_prog_clk/A clkbuf_3_4_0_prog_clk/X VGND VPWR sky130_fd_sc_hd__clkbuf_1
XFILLER_18_20 VGND VPWR sky130_fd_sc_hd__fill_2
XFILLER_11_253 VGND VPWR sky130_fd_sc_hd__fill_2
XANTENNA_mem_top_ipin_0.sc_dff_compact_2_.sky130_fd_sc_hd__dfrbp_1_D mem_top_ipin_0.sc_dff_compact_1_.sky130_fd_sc_hd__dfrbp_1/Q
+ VGND VPWR sky130_fd_sc_hd__diode_2
XFILLER_20_32 VGND VPWR sky130_fd_sc_hd__decap_12
XFILLER_19_194 VGND VPWR sky130_fd_sc_hd__decap_12
XFILLER_13_3 VGND VPWR sky130_fd_sc_hd__fill_2
XANTENNA_mem_top_ipin_0.sc_dff_compact_5_.sky130_fd_sc_hd__dfrbp_1_CLK clkbuf_3_1_0_prog_clk/X
+ VGND VPWR sky130_fd_sc_hd__diode_2
XFILLER_1_219 VGND VPWR sky130_fd_sc_hd__fill_2
XFILLER_0_230 VGND VPWR sky130_fd_sc_hd__decap_12
XFILLER_13_123 VGND VPWR sky130_fd_sc_hd__decap_12
XFILLER_9_127 VGND VPWR sky130_fd_sc_hd__fill_2
XFILLER_9_105 VGND VPWR sky130_fd_sc_hd__decap_12
XANTENNA_mem_top_ipin_1.sc_dff_compact_0_.sky130_fd_sc_hd__dfrbp_1_D mem_top_ipin_0.sc_dff_compact_5_.sky130_fd_sc_hd__dfrbp_1/Q
+ VGND VPWR sky130_fd_sc_hd__diode_2
XFILLER_18_215 VGND VPWR sky130_fd_sc_hd__decap_3
XFILLER_12_11 VGND VPWR sky130_fd_sc_hd__fill_2
XANTENNA_mem_top_ipin_0.sc_dff_compact_5_.sky130_fd_sc_hd__dfrbp_1_D mem_top_ipin_0.sc_dff_compact_5_.sky130_fd_sc_hd__dfrbp_1/D
+ VGND VPWR sky130_fd_sc_hd__diode_2
XFILLER_5_196 VGND VPWR sky130_fd_sc_hd__decap_4
XANTENNA_mem_bottom_ipin_1.sc_dff_compact_1_.sky130_fd_sc_hd__dfrbp_1_RESET_B pReset
+ VGND VPWR sky130_fd_sc_hd__diode_2
XFILLER_9_34 VGND VPWR sky130_fd_sc_hd__fill_2
XFILLER_0_58 VGND VPWR sky130_fd_sc_hd__decap_4
XFILLER_2_166 VGND VPWR sky130_fd_sc_hd__fill_2
XANTENNA_mem_bottom_ipin_1.sc_dff_compact_0_.sky130_fd_sc_hd__dfrbp_1_CLK clkbuf_3_2_0_prog_clk/X
+ VGND VPWR sky130_fd_sc_hd__diode_2
XFILLER_18_87 VGND VPWR sky130_fd_sc_hd__decap_4
XFILLER_18_32 VGND VPWR sky130_fd_sc_hd__fill_2
XFILLER_11_232 VGND VPWR sky130_fd_sc_hd__fill_2
XANTENNA_mem_bottom_ipin_2.sc_dff_compact_1_.sky130_fd_sc_hd__dfrbp_1_CLK clkbuf_3_2_0_prog_clk/X
+ VGND VPWR sky130_fd_sc_hd__diode_2
XFILLER_20_44 VGND VPWR sky130_fd_sc_hd__decap_12
XFILLER_4_206 VGND VPWR sky130_fd_sc_hd__decap_3
XFILLER_19_184 VGND VPWR sky130_fd_sc_hd__fill_2
XFILLER_6_24 VGND VPWR sky130_fd_sc_hd__decap_6
XANTENNA_mem_top_ipin_1.sc_dff_compact_3_.sky130_fd_sc_hd__dfrbp_1_D mem_top_ipin_1.sc_dff_compact_2_.sky130_fd_sc_hd__dfrbp_1/Q
+ VGND VPWR sky130_fd_sc_hd__diode_2
XFILLER_16_154 VGND VPWR sky130_fd_sc_hd__fill_2
XFILLER_16_121 VGND VPWR sky130_fd_sc_hd__decap_12
XFILLER_0_242 VGND VPWR sky130_fd_sc_hd__decap_6
Xmem_top_ipin_5.sc_dff_compact_1_.sky130_fd_sc_hd__dfrbp_1 mem_top_ipin_5.sc_dff_compact_0_.sky130_fd_sc_hd__dfrbp_1/Q
+ mem_top_ipin_5.sc_dff_compact_1_.sky130_fd_sc_hd__dfrbp_1/Q mem_top_ipin_5.sc_dff_compact_1_.sky130_fd_sc_hd__dfrbp_1/Q_N
+ pReset clkbuf_3_4_0_prog_clk/X VGND VPWR sky130_fd_sc_hd__dfrbp_1
XFILLER_13_135 VGND VPWR sky130_fd_sc_hd__decap_3
XFILLER_13_102 VGND VPWR sky130_fd_sc_hd__decap_12
XFILLER_9_117 VGND VPWR sky130_fd_sc_hd__fill_1
Xmem_top_ipin_2.sc_dff_compact_2_.sky130_fd_sc_hd__dfrbp_1 mem_top_ipin_2.sc_dff_compact_2_.sky130_fd_sc_hd__dfrbp_1/D
+ mem_top_ipin_2.sc_dff_compact_2_.sky130_fd_sc_hd__dfrbp_1/Q mem_top_ipin_2.sc_dff_compact_2_.sky130_fd_sc_hd__dfrbp_1/Q_N
+ pReset clkbuf_3_3_0_prog_clk/X VGND VPWR sky130_fd_sc_hd__dfrbp_1
XANTENNA_mem_top_ipin_3.sc_dff_compact_0_.sky130_fd_sc_hd__dfrbp_1_CLK clkbuf_3_6_0_prog_clk/X
+ VGND VPWR sky130_fd_sc_hd__diode_2
XANTENNA_mem_top_ipin_4.sc_dff_compact_1_.sky130_fd_sc_hd__dfrbp_1_CLK clkbuf_3_4_0_prog_clk/X
+ VGND VPWR sky130_fd_sc_hd__diode_2
XFILLER_5_131 VGND VPWR sky130_fd_sc_hd__decap_3
XANTENNA_mem_top_ipin_2.sc_dff_compact_1_.sky130_fd_sc_hd__dfrbp_1_D mem_top_ipin_2.sc_dff_compact_1_.sky130_fd_sc_hd__dfrbp_1/D
+ VGND VPWR sky130_fd_sc_hd__diode_2
XANTENNA_mem_top_ipin_5.sc_dff_compact_2_.sky130_fd_sc_hd__dfrbp_1_CLK clkbuf_3_4_0_prog_clk/X
+ VGND VPWR sky130_fd_sc_hd__diode_2
XFILLER_4_90 VGND VPWR sky130_fd_sc_hd__fill_2
XANTENNA_mem_top_ipin_7.sc_dff_compact_4_.sky130_fd_sc_hd__dfrbp_1_CLK clkbuf_3_7_0_prog_clk/X
+ VGND VPWR sky130_fd_sc_hd__diode_2
XANTENNA_mem_top_ipin_6.sc_dff_compact_3_.sky130_fd_sc_hd__dfrbp_1_CLK clkbuf_3_5_0_prog_clk/X
+ VGND VPWR sky130_fd_sc_hd__diode_2
XFILLER_0_15 VGND VPWR sky130_fd_sc_hd__decap_12
XFILLER_2_101 VGND VPWR sky130_fd_sc_hd__decap_8
XFILLER_3_3 VGND VPWR sky130_fd_sc_hd__decap_6
XFILLER_20_233 VGND VPWR sky130_fd_sc_hd__decap_12
XFILLER_20_211 VGND VPWR sky130_fd_sc_hd__decap_6
XFILLER_7_204 VGND VPWR sky130_fd_sc_hd__fill_2
XFILLER_20_56 VGND VPWR sky130_fd_sc_hd__decap_6
XANTENNA_clkbuf_1_0_0_prog_clk_A clkbuf_0_prog_clk/X VGND VPWR sky130_fd_sc_hd__diode_2
XFILLER_1_91 VGND VPWR sky130_fd_sc_hd__decap_12
XANTENNA_mem_top_ipin_7.sc_dff_compact_0_.sky130_fd_sc_hd__dfrbp_1_RESET_B pReset
+ VGND VPWR sky130_fd_sc_hd__diode_2
XFILLER_6_36 VGND VPWR sky130_fd_sc_hd__fill_1
XFILLER_16_133 VGND VPWR sky130_fd_sc_hd__decap_12
Xclkbuf_2_1_0_prog_clk clkbuf_2_1_0_prog_clk/A clkbuf_3_3_0_prog_clk/A VGND VPWR sky130_fd_sc_hd__clkbuf_1
XANTENNA_mem_top_ipin_2.sc_dff_compact_4_.sky130_fd_sc_hd__dfrbp_1_D mem_top_ipin_2.sc_dff_compact_3_.sky130_fd_sc_hd__dfrbp_1/Q
+ VGND VPWR sky130_fd_sc_hd__diode_2
XFILLER_13_169 VGND VPWR sky130_fd_sc_hd__fill_2
XFILLER_13_114 VGND VPWR sky130_fd_sc_hd__decap_8
XFILLER_12_191 VGND VPWR sky130_fd_sc_hd__decap_12
XFILLER_8_151 VGND VPWR sky130_fd_sc_hd__fill_2
XFILLER_3_15 VGND VPWR sky130_fd_sc_hd__fill_2
XFILLER_12_57 VGND VPWR sky130_fd_sc_hd__decap_8
XANTENNA_mem_bottom_ipin_0.sc_dff_compact_1_.sky130_fd_sc_hd__dfrbp_1_RESET_B pReset
+ VGND VPWR sky130_fd_sc_hd__diode_2
XFILLER_5_110 VGND VPWR sky130_fd_sc_hd__fill_2
XFILLER_5_165 VGND VPWR sky130_fd_sc_hd__fill_2
XANTENNA_mem_bottom_ipin_2.sc_dff_compact_2_.sky130_fd_sc_hd__dfrbp_1_RESET_B pReset
+ VGND VPWR sky130_fd_sc_hd__diode_2
XANTENNA__12__A chanx_in_10_ VGND VPWR sky130_fd_sc_hd__diode_2
XFILLER_0_27 VGND VPWR sky130_fd_sc_hd__decap_4
XFILLER_2_113 VGND VPWR sky130_fd_sc_hd__decap_12
XFILLER_14_253 VGND VPWR sky130_fd_sc_hd__fill_2
XFILLER_1_190 VGND VPWR sky130_fd_sc_hd__fill_2
XFILLER_20_245 VGND VPWR sky130_fd_sc_hd__decap_3
XANTENNA_mem_top_ipin_3.sc_dff_compact_2_.sky130_fd_sc_hd__dfrbp_1_D mem_top_ipin_3.sc_dff_compact_1_.sky130_fd_sc_hd__dfrbp_1/Q
+ VGND VPWR sky130_fd_sc_hd__diode_2
XFILLER_11_245 VGND VPWR sky130_fd_sc_hd__decap_8
XFILLER_20_79 VGND VPWR sky130_fd_sc_hd__fill_2
Xclkbuf_3_3_0_prog_clk clkbuf_3_3_0_prog_clk/A clkbuf_3_3_0_prog_clk/X VGND VPWR sky130_fd_sc_hd__clkbuf_1
XFILLER_3_241 VGND VPWR sky130_fd_sc_hd__decap_3
XFILLER_6_15 VGND VPWR sky130_fd_sc_hd__decap_3
XFILLER_15_46 VGND VPWR sky130_fd_sc_hd__fill_2
XFILLER_15_13 VGND VPWR sky130_fd_sc_hd__fill_2
Xmem_top_ipin_6.sc_dff_compact_5_.sky130_fd_sc_hd__dfrbp_1 mem_top_ipin_6.sc_dff_compact_5_.sky130_fd_sc_hd__dfrbp_1/D
+ mem_top_ipin_7.sc_dff_compact_0_.sky130_fd_sc_hd__dfrbp_1/D mem_top_ipin_6.sc_dff_compact_5_.sky130_fd_sc_hd__dfrbp_1/Q_N
+ pReset clkbuf_3_5_0_prog_clk/X VGND VPWR sky130_fd_sc_hd__dfrbp_1
XFILLER_0_211 VGND VPWR sky130_fd_sc_hd__decap_6
XANTENNA__20__A chanx_in_1_ VGND VPWR sky130_fd_sc_hd__diode_2
XFILLER_11_3 VGND VPWR sky130_fd_sc_hd__decap_4
XFILLER_7_80 VGND VPWR sky130_fd_sc_hd__fill_2
XANTENNA__15__A chanx_in_13_ VGND VPWR sky130_fd_sc_hd__diode_2
XANTENNA_mem_top_ipin_4.sc_dff_compact_0_.sky130_fd_sc_hd__dfrbp_1_D mem_top_ipin_3.sc_dff_compact_5_.sky130_fd_sc_hd__dfrbp_1/Q
+ VGND VPWR sky130_fd_sc_hd__diode_2
XFILLER_8_130 VGND VPWR sky130_fd_sc_hd__decap_6
XANTENNA_mem_top_ipin_3.sc_dff_compact_5_.sky130_fd_sc_hd__dfrbp_1_D mem_top_ipin_3.sc_dff_compact_4_.sky130_fd_sc_hd__dfrbp_1/Q
+ VGND VPWR sky130_fd_sc_hd__diode_2
Xmem_top_ipin_4.sc_dff_compact_0_.sky130_fd_sc_hd__dfrbp_1 mem_top_ipin_3.sc_dff_compact_5_.sky130_fd_sc_hd__dfrbp_1/Q
+ mem_top_ipin_4.sc_dff_compact_0_.sky130_fd_sc_hd__dfrbp_1/Q mem_top_ipin_4.sc_dff_compact_0_.sky130_fd_sc_hd__dfrbp_1/Q_N
+ pReset clkbuf_3_6_0_prog_clk/X VGND VPWR sky130_fd_sc_hd__dfrbp_1
Xmem_top_ipin_1.sc_dff_compact_1_.sky130_fd_sc_hd__dfrbp_1 mem_top_ipin_1.sc_dff_compact_0_.sky130_fd_sc_hd__dfrbp_1/Q
+ mem_top_ipin_1.sc_dff_compact_1_.sky130_fd_sc_hd__dfrbp_1/Q mem_top_ipin_1.sc_dff_compact_1_.sky130_fd_sc_hd__dfrbp_1/Q_N
+ pReset clkbuf_3_1_0_prog_clk/X VGND VPWR sky130_fd_sc_hd__dfrbp_1
XFILLER_2_125 VGND VPWR sky130_fd_sc_hd__fill_1
XFILLER_2_158 VGND VPWR sky130_fd_sc_hd__decap_8
XFILLER_4_81 VGND VPWR sky130_fd_sc_hd__fill_2
XFILLER_18_79 VGND VPWR sky130_fd_sc_hd__fill_2
XFILLER_18_57 VGND VPWR sky130_fd_sc_hd__decap_12
XFILLER_18_24 VGND VPWR sky130_fd_sc_hd__decap_6
Xmem_bottom_ipin_0.sc_dff_compact_3_.sky130_fd_sc_hd__dfrbp_1 mem_bottom_ipin_0.sc_dff_compact_3_.sky130_fd_sc_hd__dfrbp_1/D
+ mem_bottom_ipin_0.sc_dff_compact_4_.sky130_fd_sc_hd__dfrbp_1/D mem_bottom_ipin_0.sc_dff_compact_3_.sky130_fd_sc_hd__dfrbp_1/Q_N
+ pReset clkbuf_3_2_0_prog_clk/X VGND VPWR sky130_fd_sc_hd__dfrbp_1
XANTENNA_mem_top_ipin_6.sc_dff_compact_0_.sky130_fd_sc_hd__dfrbp_1_RESET_B pReset
+ VGND VPWR sky130_fd_sc_hd__diode_2
XANTENNA__23__A chanx_in_4_ VGND VPWR sky130_fd_sc_hd__diode_2
X_28_ chanx_in_9_ chanx_out_9_ VGND VPWR sky130_fd_sc_hd__buf_2
XANTENNA_mem_top_ipin_4.sc_dff_compact_3_.sky130_fd_sc_hd__dfrbp_1_D mem_top_ipin_4.sc_dff_compact_2_.sky130_fd_sc_hd__dfrbp_1/Q
+ VGND VPWR sky130_fd_sc_hd__diode_2
XANTENNA__18__A chanx_in_16_ VGND VPWR sky130_fd_sc_hd__diode_2
XFILLER_13_7 VGND VPWR sky130_fd_sc_hd__fill_2
XFILLER_10_91 VGND VPWR sky130_fd_sc_hd__fill_1
XFILLER_3_253 VGND VPWR sky130_fd_sc_hd__fill_2
XFILLER_15_58 VGND VPWR sky130_fd_sc_hd__decap_3
XPHY_130 VGND VPWR sky130_fd_sc_hd__tapvpwrvgnd_1
XFILLER_16_179 VGND VPWR sky130_fd_sc_hd__decap_12
XFILLER_12_15 VGND VPWR sky130_fd_sc_hd__decap_12
XANTENNA__26__A chanx_in_7_ VGND VPWR sky130_fd_sc_hd__diode_2
XFILLER_5_9 VGND VPWR sky130_fd_sc_hd__fill_1
XFILLER_17_230 VGND VPWR sky130_fd_sc_hd__fill_2
XANTENNA_mem_top_ipin_5.sc_dff_compact_1_.sky130_fd_sc_hd__dfrbp_1_D mem_top_ipin_5.sc_dff_compact_0_.sky130_fd_sc_hd__dfrbp_1/Q
+ VGND VPWR sky130_fd_sc_hd__diode_2
XFILLER_5_123 VGND VPWR sky130_fd_sc_hd__decap_8
XFILLER_4_93 VGND VPWR sky130_fd_sc_hd__fill_2
XFILLER_14_233 VGND VPWR sky130_fd_sc_hd__decap_12
XFILLER_9_38 VGND VPWR sky130_fd_sc_hd__fill_2
XANTENNA_mem_top_ipin_1.sc_dff_compact_5_.sky130_fd_sc_hd__dfrbp_1_CLK clkbuf_3_3_0_prog_clk/X
+ VGND VPWR sky130_fd_sc_hd__diode_2
XFILLER_1_170 VGND VPWR sky130_fd_sc_hd__fill_2
XANTENNA_mem_top_ipin_0.sc_dff_compact_4_.sky130_fd_sc_hd__dfrbp_1_CLK clkbuf_3_1_0_prog_clk/X
+ VGND VPWR sky130_fd_sc_hd__diode_2
XFILLER_18_69 VGND VPWR sky130_fd_sc_hd__decap_8
XANTENNA_clkbuf_3_3_0_prog_clk_A clkbuf_3_3_0_prog_clk/A VGND VPWR sky130_fd_sc_hd__diode_2
XFILLER_11_236 VGND VPWR sky130_fd_sc_hd__decap_8
XFILLER_11_203 VGND VPWR sky130_fd_sc_hd__fill_2
XFILLER_1_3 VGND VPWR sky130_fd_sc_hd__decap_12
X_27_ chanx_in_8_ chanx_out_8_ VGND VPWR sky130_fd_sc_hd__buf_2
XFILLER_20_15 VGND VPWR sky130_fd_sc_hd__fill_2
XFILLER_19_133 VGND VPWR sky130_fd_sc_hd__fill_2
XFILLER_19_111 VGND VPWR sky130_fd_sc_hd__decap_8
XFILLER_19_100 VGND VPWR sky130_fd_sc_hd__decap_8
XANTENNA_mem_bottom_ipin_0.sc_dff_compact_0_.sky130_fd_sc_hd__dfrbp_1_D ccff_head
+ VGND VPWR sky130_fd_sc_hd__diode_2
XPHY_131 VGND VPWR sky130_fd_sc_hd__tapvpwrvgnd_1
XPHY_120 VGND VPWR sky130_fd_sc_hd__tapvpwrvgnd_1
XFILLER_16_147 VGND VPWR sky130_fd_sc_hd__fill_2
XPHY_0 VGND VPWR sky130_fd_sc_hd__decap_3
XANTENNA_mem_top_ipin_5.sc_dff_compact_4_.sky130_fd_sc_hd__dfrbp_1_D mem_top_ipin_5.sc_dff_compact_4_.sky130_fd_sc_hd__dfrbp_1/D
+ VGND VPWR sky130_fd_sc_hd__diode_2
XFILLER_8_154 VGND VPWR sky130_fd_sc_hd__fill_2
Xmem_top_ipin_5.sc_dff_compact_4_.sky130_fd_sc_hd__dfrbp_1 mem_top_ipin_5.sc_dff_compact_4_.sky130_fd_sc_hd__dfrbp_1/D
+ mem_top_ipin_5.sc_dff_compact_4_.sky130_fd_sc_hd__dfrbp_1/Q mem_top_ipin_5.sc_dff_compact_4_.sky130_fd_sc_hd__dfrbp_1/Q_N
+ pReset clkbuf_3_5_0_prog_clk/X VGND VPWR sky130_fd_sc_hd__dfrbp_1
XFILLER_18_209 VGND VPWR sky130_fd_sc_hd__decap_4
XANTENNA_mem_bottom_ipin_2.sc_dff_compact_0_.sky130_fd_sc_hd__dfrbp_1_CLK clkbuf_3_2_0_prog_clk/X
+ VGND VPWR sky130_fd_sc_hd__diode_2
Xmem_top_ipin_2.sc_dff_compact_5_.sky130_fd_sc_hd__dfrbp_1 mem_top_ipin_2.sc_dff_compact_5_.sky130_fd_sc_hd__dfrbp_1/D
+ mem_top_ipin_3.sc_dff_compact_0_.sky130_fd_sc_hd__dfrbp_1/D mem_top_ipin_2.sc_dff_compact_5_.sky130_fd_sc_hd__dfrbp_1/Q_N
+ pReset clkbuf_3_6_0_prog_clk/X VGND VPWR sky130_fd_sc_hd__dfrbp_1
XFILLER_17_253 VGND VPWR sky130_fd_sc_hd__fill_2
XFILLER_17_242 VGND VPWR sky130_fd_sc_hd__fill_2
Xclkbuf_2_0_0_prog_clk clkbuf_2_1_0_prog_clk/A clkbuf_2_0_0_prog_clk/X VGND VPWR sky130_fd_sc_hd__clkbuf_1
XANTENNA_mem_top_ipin_5.sc_dff_compact_0_.sky130_fd_sc_hd__dfrbp_1_RESET_B pReset
+ VGND VPWR sky130_fd_sc_hd__diode_2
XFILLER_14_245 VGND VPWR sky130_fd_sc_hd__decap_8
XFILLER_13_70 VGND VPWR sky130_fd_sc_hd__fill_1
XANTENNA_mem_top_ipin_7.sc_dff_compact_1_.sky130_fd_sc_hd__dfrbp_1_RESET_B pReset
+ VGND VPWR sky130_fd_sc_hd__diode_2
XFILLER_20_226 VGND VPWR sky130_fd_sc_hd__decap_3
XANTENNA_mem_bottom_ipin_0.sc_dff_compact_3_.sky130_fd_sc_hd__dfrbp_1_D mem_bottom_ipin_0.sc_dff_compact_3_.sky130_fd_sc_hd__dfrbp_1/D
+ VGND VPWR sky130_fd_sc_hd__diode_2
XANTENNA_mem_top_ipin_6.sc_dff_compact_2_.sky130_fd_sc_hd__dfrbp_1_D mem_top_ipin_6.sc_dff_compact_2_.sky130_fd_sc_hd__dfrbp_1/D
+ VGND VPWR sky130_fd_sc_hd__diode_2
XFILLER_1_182 VGND VPWR sky130_fd_sc_hd__fill_1
XFILLER_18_15 VGND VPWR sky130_fd_sc_hd__fill_2
Xmem_bottom_ipin_2.sc_dff_compact_1_.sky130_fd_sc_hd__dfrbp_1 mem_bottom_ipin_2.sc_dff_compact_0_.sky130_fd_sc_hd__dfrbp_1/Q
+ mem_bottom_ipin_2.sc_dff_compact_1_.sky130_fd_sc_hd__dfrbp_1/Q mem_bottom_ipin_2.sc_dff_compact_1_.sky130_fd_sc_hd__dfrbp_1/Q_N
+ pReset clkbuf_3_2_0_prog_clk/X VGND VPWR sky130_fd_sc_hd__dfrbp_1
XFILLER_7_208 VGND VPWR sky130_fd_sc_hd__fill_2
Xmem_top_ipin_0.sc_dff_compact_0_.sky130_fd_sc_hd__dfrbp_1 mem_top_ipin_0.sc_dff_compact_0_.sky130_fd_sc_hd__dfrbp_1/D
+ mem_top_ipin_0.sc_dff_compact_0_.sky130_fd_sc_hd__dfrbp_1/Q mem_top_ipin_0.sc_dff_compact_0_.sky130_fd_sc_hd__dfrbp_1/Q_N
+ pReset clkbuf_3_0_0_prog_clk/X VGND VPWR sky130_fd_sc_hd__dfrbp_1
XFILLER_1_62 VGND VPWR sky130_fd_sc_hd__fill_2
X_26_ chanx_in_7_ chanx_out_7_ VGND VPWR sky130_fd_sc_hd__buf_2
XFILLER_19_123 VGND VPWR sky130_fd_sc_hd__decap_4
XFILLER_10_93 VGND VPWR sky130_fd_sc_hd__fill_2
XFILLER_10_82 VGND VPWR sky130_fd_sc_hd__fill_2
XFILLER_3_222 VGND VPWR sky130_fd_sc_hd__fill_2
XFILLER_3_233 VGND VPWR sky130_fd_sc_hd__decap_8
XFILLER_15_38 VGND VPWR sky130_fd_sc_hd__fill_2
XANTENNA_mem_bottom_ipin_0.sc_dff_compact_2_.sky130_fd_sc_hd__dfrbp_1_RESET_B pReset
+ VGND VPWR sky130_fd_sc_hd__diode_2
X_09_ _09_/HI bottom_grid_pin_0_ VGND VPWR sky130_fd_sc_hd__conb_1
XPHY_132 VGND VPWR sky130_fd_sc_hd__tapvpwrvgnd_1
XPHY_121 VGND VPWR sky130_fd_sc_hd__tapvpwrvgnd_1
XPHY_110 VGND VPWR sky130_fd_sc_hd__tapvpwrvgnd_1
XANTENNA_mem_bottom_ipin_1.sc_dff_compact_1_.sky130_fd_sc_hd__dfrbp_1_D mem_bottom_ipin_1.sc_dff_compact_0_.sky130_fd_sc_hd__dfrbp_1/Q
+ VGND VPWR sky130_fd_sc_hd__diode_2
XANTENNA_mem_top_ipin_4.sc_dff_compact_0_.sky130_fd_sc_hd__dfrbp_1_CLK clkbuf_3_6_0_prog_clk/X
+ VGND VPWR sky130_fd_sc_hd__diode_2
XANTENNA_mem_top_ipin_7.sc_dff_compact_0_.sky130_fd_sc_hd__dfrbp_1_D mem_top_ipin_7.sc_dff_compact_0_.sky130_fd_sc_hd__dfrbp_1/D
+ VGND VPWR sky130_fd_sc_hd__diode_2
XPHY_1 VGND VPWR sky130_fd_sc_hd__decap_3
XANTENNA_mem_bottom_ipin_2.sc_dff_compact_3_.sky130_fd_sc_hd__dfrbp_1_RESET_B pReset
+ VGND VPWR sky130_fd_sc_hd__diode_2
XANTENNA_mem_top_ipin_5.sc_dff_compact_1_.sky130_fd_sc_hd__dfrbp_1_CLK clkbuf_3_4_0_prog_clk/X
+ VGND VPWR sky130_fd_sc_hd__diode_2
Xclkbuf_3_2_0_prog_clk clkbuf_3_3_0_prog_clk/A clkbuf_3_2_0_prog_clk/X VGND VPWR sky130_fd_sc_hd__clkbuf_1
XANTENNA_mem_top_ipin_6.sc_dff_compact_2_.sky130_fd_sc_hd__dfrbp_1_CLK clkbuf_3_5_0_prog_clk/X
+ VGND VPWR sky130_fd_sc_hd__diode_2
XANTENNA_mem_top_ipin_7.sc_dff_compact_3_.sky130_fd_sc_hd__dfrbp_1_CLK clkbuf_3_7_0_prog_clk/X
+ VGND VPWR sky130_fd_sc_hd__diode_2
XFILLER_12_151 VGND VPWR sky130_fd_sc_hd__fill_2
XANTENNA_mem_top_ipin_6.sc_dff_compact_5_.sky130_fd_sc_hd__dfrbp_1_D mem_top_ipin_6.sc_dff_compact_5_.sky130_fd_sc_hd__dfrbp_1/D
+ VGND VPWR sky130_fd_sc_hd__diode_2
XFILLER_5_114 VGND VPWR sky130_fd_sc_hd__decap_8
XFILLER_5_136 VGND VPWR sky130_fd_sc_hd__fill_2
XFILLER_5_169 VGND VPWR sky130_fd_sc_hd__decap_12
XFILLER_14_213 VGND VPWR sky130_fd_sc_hd__fill_1
XFILLER_20_249 VGND VPWR sky130_fd_sc_hd__decap_6
XFILLER_1_194 VGND VPWR sky130_fd_sc_hd__decap_12
XFILLER_1_150 VGND VPWR sky130_fd_sc_hd__decap_4
XFILLER_20_28 VGND VPWR sky130_fd_sc_hd__decap_3
XANTENNA_mem_top_ipin_7.sc_dff_compact_3_.sky130_fd_sc_hd__dfrbp_1_D mem_top_ipin_7.sc_dff_compact_3_.sky130_fd_sc_hd__dfrbp_1/D
+ VGND VPWR sky130_fd_sc_hd__diode_2
X_25_ chanx_in_6_ chanx_out_6_ VGND VPWR sky130_fd_sc_hd__buf_2
XFILLER_3_245 VGND VPWR sky130_fd_sc_hd__decap_8
XFILLER_19_70 VGND VPWR sky130_fd_sc_hd__decap_3
X_08_ _08_/HI bottom_grid_pin_10_ VGND VPWR sky130_fd_sc_hd__conb_1
XANTENNA_clkbuf_2_2_0_prog_clk_A clkbuf_2_3_0_prog_clk/A VGND VPWR sky130_fd_sc_hd__diode_2
XPHY_100 VGND VPWR sky130_fd_sc_hd__tapvpwrvgnd_1
XPHY_133 VGND VPWR sky130_fd_sc_hd__tapvpwrvgnd_1
XPHY_122 VGND VPWR sky130_fd_sc_hd__tapvpwrvgnd_1
XPHY_111 VGND VPWR sky130_fd_sc_hd__tapvpwrvgnd_1
XFILLER_15_182 VGND VPWR sky130_fd_sc_hd__fill_1
XFILLER_15_160 VGND VPWR sky130_fd_sc_hd__fill_2
XPHY_2 VGND VPWR sky130_fd_sc_hd__decap_3
XANTENNA_mem_top_ipin_4.sc_dff_compact_0_.sky130_fd_sc_hd__dfrbp_1_RESET_B pReset
+ VGND VPWR sky130_fd_sc_hd__diode_2
XFILLER_7_62 VGND VPWR sky130_fd_sc_hd__decap_12
XFILLER_16_93 VGND VPWR sky130_fd_sc_hd__decap_4
XFILLER_12_163 VGND VPWR sky130_fd_sc_hd__fill_2
XFILLER_12_130 VGND VPWR sky130_fd_sc_hd__decap_8
XFILLER_8_145 VGND VPWR sky130_fd_sc_hd__decap_3
Xmem_top_ipin_7.sc_dff_compact_2_.sky130_fd_sc_hd__dfrbp_1 mem_top_ipin_7.sc_dff_compact_2_.sky130_fd_sc_hd__dfrbp_1/D
+ mem_top_ipin_7.sc_dff_compact_3_.sky130_fd_sc_hd__dfrbp_1/D mem_top_ipin_7.sc_dff_compact_2_.sky130_fd_sc_hd__dfrbp_1/Q_N
+ pReset clkbuf_3_7_0_prog_clk/X VGND VPWR sky130_fd_sc_hd__dfrbp_1
XFILLER_12_29 VGND VPWR sky130_fd_sc_hd__fill_2
XANTENNA_mem_top_ipin_6.sc_dff_compact_1_.sky130_fd_sc_hd__dfrbp_1_RESET_B pReset
+ VGND VPWR sky130_fd_sc_hd__diode_2
XANTENNA_mem_bottom_ipin_2.sc_dff_compact_2_.sky130_fd_sc_hd__dfrbp_1_D mem_bottom_ipin_2.sc_dff_compact_1_.sky130_fd_sc_hd__dfrbp_1/Q
+ VGND VPWR sky130_fd_sc_hd__diode_2
Xmem_top_ipin_4.sc_dff_compact_3_.sky130_fd_sc_hd__dfrbp_1 mem_top_ipin_4.sc_dff_compact_2_.sky130_fd_sc_hd__dfrbp_1/Q
+ mem_top_ipin_4.sc_dff_compact_3_.sky130_fd_sc_hd__dfrbp_1/Q mem_top_ipin_4.sc_dff_compact_3_.sky130_fd_sc_hd__dfrbp_1/Q_N
+ pReset clkbuf_3_6_0_prog_clk/X VGND VPWR sky130_fd_sc_hd__dfrbp_1
XFILLER_4_85 VGND VPWR sky130_fd_sc_hd__decap_3
XFILLER_2_129 VGND VPWR sky130_fd_sc_hd__decap_12
XFILLER_1_184 VGND VPWR sky130_fd_sc_hd__fill_2
Xmem_top_ipin_1.sc_dff_compact_4_.sky130_fd_sc_hd__dfrbp_1 mem_top_ipin_1.sc_dff_compact_4_.sky130_fd_sc_hd__dfrbp_1/D
+ mem_top_ipin_1.sc_dff_compact_5_.sky130_fd_sc_hd__dfrbp_1/D mem_top_ipin_1.sc_dff_compact_4_.sky130_fd_sc_hd__dfrbp_1/Q_N
+ pReset clkbuf_3_3_0_prog_clk/X VGND VPWR sky130_fd_sc_hd__dfrbp_1
XFILLER_11_228 VGND VPWR sky130_fd_sc_hd__fill_2
XFILLER_9_240 VGND VPWR sky130_fd_sc_hd__decap_4
X_24_ chanx_in_5_ chanx_out_5_ VGND VPWR sky130_fd_sc_hd__buf_2
XFILLER_1_53 VGND VPWR sky130_fd_sc_hd__fill_2
XFILLER_1_20 VGND VPWR sky130_fd_sc_hd__fill_2
XFILLER_19_158 VGND VPWR sky130_fd_sc_hd__decap_12
XFILLER_19_60 VGND VPWR sky130_fd_sc_hd__fill_1
Xmem_bottom_ipin_1.sc_dff_compact_0_.sky130_fd_sc_hd__dfrbp_1 mem_bottom_ipin_0.sc_dff_compact_5_.sky130_fd_sc_hd__dfrbp_1/Q
+ mem_bottom_ipin_1.sc_dff_compact_0_.sky130_fd_sc_hd__dfrbp_1/Q mem_bottom_ipin_1.sc_dff_compact_0_.sky130_fd_sc_hd__dfrbp_1/Q_N
+ pReset clkbuf_3_2_0_prog_clk/X VGND VPWR sky130_fd_sc_hd__dfrbp_1
X_07_ _07_/HI bottom_grid_pin_12_ VGND VPWR sky130_fd_sc_hd__conb_1
XFILLER_18_191 VGND VPWR sky130_fd_sc_hd__decap_12
XFILLER_0_249 VGND VPWR sky130_fd_sc_hd__decap_6
XANTENNA_mem_bottom_ipin_2.sc_dff_compact_5_.sky130_fd_sc_hd__dfrbp_1_D mem_bottom_ipin_2.sc_dff_compact_4_.sky130_fd_sc_hd__dfrbp_1/Q
+ VGND VPWR sky130_fd_sc_hd__diode_2
XPHY_123 VGND VPWR sky130_fd_sc_hd__tapvpwrvgnd_1
XPHY_112 VGND VPWR sky130_fd_sc_hd__tapvpwrvgnd_1
XPHY_101 VGND VPWR sky130_fd_sc_hd__tapvpwrvgnd_1
XFILLER_15_150 VGND VPWR sky130_fd_sc_hd__decap_4
XPHY_3 VGND VPWR sky130_fd_sc_hd__decap_3
XFILLER_16_83 VGND VPWR sky130_fd_sc_hd__fill_1
XFILLER_12_142 VGND VPWR sky130_fd_sc_hd__fill_2
XFILLER_8_179 VGND VPWR sky130_fd_sc_hd__decap_12
XFILLER_17_245 VGND VPWR sky130_fd_sc_hd__decap_8
XFILLER_17_234 VGND VPWR sky130_fd_sc_hd__decap_8
XFILLER_4_20 VGND VPWR sky130_fd_sc_hd__decap_8
XFILLER_4_182 VGND VPWR sky130_fd_sc_hd__fill_1
XFILLER_14_215 VGND VPWR sky130_fd_sc_hd__decap_12
XFILLER_13_73 VGND VPWR sky130_fd_sc_hd__fill_2
XFILLER_13_62 VGND VPWR sky130_fd_sc_hd__decap_8
XFILLER_13_40 VGND VPWR sky130_fd_sc_hd__fill_2
XFILLER_1_174 VGND VPWR sky130_fd_sc_hd__fill_2
XFILLER_20_218 VGND VPWR sky130_fd_sc_hd__decap_8
XANTENNA_mem_bottom_ipin_0.sc_dff_compact_5_.sky130_fd_sc_hd__dfrbp_1_CLK clkbuf_3_2_0_prog_clk/X
+ VGND VPWR sky130_fd_sc_hd__diode_2
XFILLER_10_240 VGND VPWR sky130_fd_sc_hd__decap_12
X_23_ chanx_in_4_ chanx_out_4_ VGND VPWR sky130_fd_sc_hd__buf_2
XFILLER_1_32 VGND VPWR sky130_fd_sc_hd__fill_2
XANTENNA_mem_top_ipin_3.sc_dff_compact_0_.sky130_fd_sc_hd__dfrbp_1_RESET_B pReset
+ VGND VPWR sky130_fd_sc_hd__diode_2
X_06_ _06_/HI bottom_grid_pin_14_ VGND VPWR sky130_fd_sc_hd__conb_1
XPHY_124 VGND VPWR sky130_fd_sc_hd__tapvpwrvgnd_1
XPHY_113 VGND VPWR sky130_fd_sc_hd__tapvpwrvgnd_1
XPHY_102 VGND VPWR sky130_fd_sc_hd__tapvpwrvgnd_1
XANTENNA_mem_top_ipin_5.sc_dff_compact_1_.sky130_fd_sc_hd__dfrbp_1_RESET_B pReset
+ VGND VPWR sky130_fd_sc_hd__diode_2
XFILLER_15_184 VGND VPWR sky130_fd_sc_hd__decap_12
XFILLER_11_9 VGND VPWR sky130_fd_sc_hd__fill_2
XPHY_4 VGND VPWR sky130_fd_sc_hd__decap_3
XFILLER_7_20 VGND VPWR sky130_fd_sc_hd__fill_2
XANTENNA_mem_top_ipin_7.sc_dff_compact_2_.sky130_fd_sc_hd__dfrbp_1_RESET_B pReset
+ VGND VPWR sky130_fd_sc_hd__diode_2
XANTENNA_clkbuf_1_1_0_prog_clk_A clkbuf_0_prog_clk/X VGND VPWR sky130_fd_sc_hd__diode_2
XFILLER_12_154 VGND VPWR sky130_fd_sc_hd__fill_2
XFILLER_8_136 VGND VPWR sky130_fd_sc_hd__fill_1
XANTENNA_mem_top_ipin_0.sc_dff_compact_3_.sky130_fd_sc_hd__dfrbp_1_CLK clkbuf_3_1_0_prog_clk/X
+ VGND VPWR sky130_fd_sc_hd__diode_2
XANTENNA_mem_top_ipin_2.sc_dff_compact_5_.sky130_fd_sc_hd__dfrbp_1_CLK clkbuf_3_6_0_prog_clk/X
+ VGND VPWR sky130_fd_sc_hd__diode_2
XANTENNA_mem_top_ipin_1.sc_dff_compact_4_.sky130_fd_sc_hd__dfrbp_1_CLK clkbuf_3_3_0_prog_clk/X
+ VGND VPWR sky130_fd_sc_hd__diode_2
XFILLER_17_202 VGND VPWR sky130_fd_sc_hd__fill_1
XFILLER_5_106 VGND VPWR sky130_fd_sc_hd__fill_2
XFILLER_4_32 VGND VPWR sky130_fd_sc_hd__fill_2
Xclkbuf_3_1_0_prog_clk clkbuf_2_0_0_prog_clk/X clkbuf_3_1_0_prog_clk/X VGND VPWR sky130_fd_sc_hd__clkbuf_1
XFILLER_14_227 VGND VPWR sky130_fd_sc_hd__fill_2
XFILLER_14_205 VGND VPWR sky130_fd_sc_hd__decap_8
Xmem_top_ipin_6.sc_dff_compact_1_.sky130_fd_sc_hd__dfrbp_1 mem_top_ipin_6.sc_dff_compact_0_.sky130_fd_sc_hd__dfrbp_1/Q
+ mem_top_ipin_6.sc_dff_compact_2_.sky130_fd_sc_hd__dfrbp_1/D mem_top_ipin_6.sc_dff_compact_1_.sky130_fd_sc_hd__dfrbp_1/Q_N
+ pReset clkbuf_3_5_0_prog_clk/X VGND VPWR sky130_fd_sc_hd__dfrbp_1
XANTENNA_mem_bottom_ipin_0.sc_dff_compact_3_.sky130_fd_sc_hd__dfrbp_1_RESET_B pReset
+ VGND VPWR sky130_fd_sc_hd__diode_2
XFILLER_9_253 VGND VPWR sky130_fd_sc_hd__fill_2
Xmem_top_ipin_3.sc_dff_compact_2_.sky130_fd_sc_hd__dfrbp_1 mem_top_ipin_3.sc_dff_compact_1_.sky130_fd_sc_hd__dfrbp_1/Q
+ mem_top_ipin_3.sc_dff_compact_2_.sky130_fd_sc_hd__dfrbp_1/Q mem_top_ipin_3.sc_dff_compact_2_.sky130_fd_sc_hd__dfrbp_1/Q_N
+ pReset clkbuf_3_6_0_prog_clk/X VGND VPWR sky130_fd_sc_hd__dfrbp_1
X_22_ chanx_in_3_ chanx_out_3_ VGND VPWR sky130_fd_sc_hd__buf_2
XFILLER_10_252 VGND VPWR sky130_fd_sc_hd__decap_3
XFILLER_6_223 VGND VPWR sky130_fd_sc_hd__decap_12
XFILLER_6_212 VGND VPWR sky130_fd_sc_hd__fill_2
XFILLER_1_66 VGND VPWR sky130_fd_sc_hd__fill_2
XFILLER_1_44 VGND VPWR sky130_fd_sc_hd__fill_1
XANTENNA_mem_bottom_ipin_2.sc_dff_compact_4_.sky130_fd_sc_hd__dfrbp_1_RESET_B pReset
+ VGND VPWR sky130_fd_sc_hd__diode_2
Xmem_bottom_ipin_2.sc_dff_compact_4_.sky130_fd_sc_hd__dfrbp_1 mem_bottom_ipin_2.sc_dff_compact_3_.sky130_fd_sc_hd__dfrbp_1/Q
+ mem_bottom_ipin_2.sc_dff_compact_4_.sky130_fd_sc_hd__dfrbp_1/Q mem_bottom_ipin_2.sc_dff_compact_4_.sky130_fd_sc_hd__dfrbp_1/Q_N
+ pReset clkbuf_3_0_0_prog_clk/X VGND VPWR sky130_fd_sc_hd__dfrbp_1
Xmem_top_ipin_0.sc_dff_compact_3_.sky130_fd_sc_hd__dfrbp_1 mem_top_ipin_0.sc_dff_compact_3_.sky130_fd_sc_hd__dfrbp_1/D
+ mem_top_ipin_0.sc_dff_compact_3_.sky130_fd_sc_hd__dfrbp_1/Q mem_top_ipin_0.sc_dff_compact_3_.sky130_fd_sc_hd__dfrbp_1/Q_N
+ pReset clkbuf_3_1_0_prog_clk/X VGND VPWR sky130_fd_sc_hd__dfrbp_1
XFILLER_19_62 VGND VPWR sky130_fd_sc_hd__decap_8
XFILLER_10_97 VGND VPWR sky130_fd_sc_hd__decap_3
XFILLER_3_226 VGND VPWR sky130_fd_sc_hd__decap_4
X_05_ _05_/HI bottom_grid_pin_2_ VGND VPWR sky130_fd_sc_hd__conb_1
XFILLER_18_3 VGND VPWR sky130_fd_sc_hd__decap_12
XPHY_125 VGND VPWR sky130_fd_sc_hd__tapvpwrvgnd_1
XPHY_114 VGND VPWR sky130_fd_sc_hd__tapvpwrvgnd_1
XPHY_103 VGND VPWR sky130_fd_sc_hd__tapvpwrvgnd_1
XFILLER_0_218 VGND VPWR sky130_fd_sc_hd__decap_12
XFILLER_15_196 VGND VPWR sky130_fd_sc_hd__decap_3
XPHY_5 VGND VPWR sky130_fd_sc_hd__decap_3
XFILLER_7_54 VGND VPWR sky130_fd_sc_hd__fill_2
XFILLER_7_76 VGND VPWR sky130_fd_sc_hd__fill_2
XFILLER_7_181 VGND VPWR sky130_fd_sc_hd__fill_2
XFILLER_4_77 VGND VPWR sky130_fd_sc_hd__fill_2