* NGSPICE file created from cbx_1__1_.ext - technology: sky130A

* Black-box entry subcircuit for sky130_fd_sc_hd__fill_1 abstract view
.subckt sky130_fd_sc_hd__fill_1 VGND VPWR
.ends

* Black-box entry subcircuit for sky130_fd_sc_hd__decap_8 abstract view
.subckt sky130_fd_sc_hd__decap_8 VGND VPWR
.ends

* Black-box entry subcircuit for sky130_fd_sc_hd__fill_2 abstract view
.subckt sky130_fd_sc_hd__fill_2 VGND VPWR
.ends

* Black-box entry subcircuit for sky130_fd_sc_hd__dfrbp_1 abstract view
.subckt sky130_fd_sc_hd__dfrbp_1 D Q Q_N RESET_B CLK VGND VPWR
.ends

* Black-box entry subcircuit for sky130_fd_sc_hd__decap_12 abstract view
.subckt sky130_fd_sc_hd__decap_12 VGND VPWR
.ends

* Black-box entry subcircuit for sky130_fd_sc_hd__decap_4 abstract view
.subckt sky130_fd_sc_hd__decap_4 VGND VPWR
.ends

* Black-box entry subcircuit for sky130_fd_sc_hd__diode_2 abstract view
.subckt sky130_fd_sc_hd__diode_2 DIODE VGND VPWR
.ends

* Black-box entry subcircuit for sky130_fd_sc_hd__decap_6 abstract view
.subckt sky130_fd_sc_hd__decap_6 VGND VPWR
.ends

* Black-box entry subcircuit for sky130_fd_sc_hd__decap_3 abstract view
.subckt sky130_fd_sc_hd__decap_3 VGND VPWR
.ends

* Black-box entry subcircuit for sky130_fd_sc_hd__buf_2 abstract view
.subckt sky130_fd_sc_hd__buf_2 A X VGND VPWR
.ends

* Black-box entry subcircuit for sky130_fd_sc_hd__conb_1 abstract view
.subckt sky130_fd_sc_hd__conb_1 HI LO VGND VPWR
.ends

* Black-box entry subcircuit for sky130_fd_sc_hd__clkbuf_16 abstract view
.subckt sky130_fd_sc_hd__clkbuf_16 A X VGND VPWR
.ends

* Black-box entry subcircuit for sky130_fd_sc_hd__tapvpwrvgnd_1 abstract view
.subckt sky130_fd_sc_hd__tapvpwrvgnd_1 VGND VPWR
.ends

* Black-box entry subcircuit for sky130_fd_sc_hd__clkbuf_1 abstract view
.subckt sky130_fd_sc_hd__clkbuf_1 A X VGND VPWR
.ends

.subckt cbx_1__1_ chanx_out_7_ chanx_in_9_ chanx_in_5_ chanx_out_16_ top_grid_pin_6_
+ bottom_grid_pin_4_ ccff_tail chanx_in_17_ chanx_in_16_ chanx_in_10_ chanx_out_3_
+ chanx_in_3_ ccff_head chanx_in_7_ top_grid_pin_14_ chanx_out_10_ chanx_out_13_ chanx_in_2_
+ chanx_out_9_ chanx_in_14_ chanx_out_15_ chanx_in_11_ chanx_in_4_ chanx_out_17_ top_grid_pin_2_
+ chanx_out_4_ chanx_in_15_ pReset chanx_in_8_ chanx_in_1_ chanx_out_0_ chanx_out_1_
+ chanx_in_6_ chanx_in_12_ chanx_out_11_ chanx_out_6_ chanx_out_8_ prog_clk bottom_grid_pin_0_
+ bottom_grid_pin_8_ chanx_out_2_ chanx_in_13_ chanx_out_12_ chanx_in_0_ chanx_out_5_
+ chanx_out_14_
XFILLER_7_7 PHY_15/VGND PHY_17/VPWR sky130_fd_sc_hd__fill_1
XFILLER_13_111 PHY_27/VGND _20_/VPWR sky130_fd_sc_hd__decap_8
XFILLER_9_104 PHY_19/VGND PHY_21/VPWR sky130_fd_sc_hd__fill_2
Xmem_top_ipin_0.sc_dff_compact_4_.sky130_fd_sc_hd__dfrbp_1 mem_top_ipin_0.sc_dff_compact_4_.sky130_fd_sc_hd__dfrbp_1/D
+ mem_top_ipin_0.sc_dff_compact_4_.sky130_fd_sc_hd__dfrbp_1/Q mem_top_ipin_0.sc_dff_compact_4_.sky130_fd_sc_hd__dfrbp_1/Q_N
+ pReset clkbuf_1_1_0_prog_clk/X PHY_27/VGND PHY_25/VPWR sky130_fd_sc_hd__dfrbp_1
Xmem_bottom_ipin_2.sc_dff_compact_5_.sky130_fd_sc_hd__dfrbp_1 mem_bottom_ipin_2.sc_dff_compact_5_.sky130_fd_sc_hd__dfrbp_1/D
+ mem_top_ipin_0.sc_dff_compact_0_.sky130_fd_sc_hd__dfrbp_1/D mem_bottom_ipin_2.sc_dff_compact_5_.sky130_fd_sc_hd__dfrbp_1/Q_N
+ pReset clkbuf_1_0_0_prog_clk/X PHY_27/VGND _20_/VPWR sky130_fd_sc_hd__dfrbp_1
XFILLER_10_125 PHY_23/VGND PHY_21/VPWR sky130_fd_sc_hd__decap_12
XFILLER_12_32 PHY_27/VGND PHY_25/VPWR sky130_fd_sc_hd__decap_4
XFILLER_12_65 PHY_27/VGND PHY_25/VPWR sky130_fd_sc_hd__fill_2
XFILLER_23_75 _09_/VGND _09_/VPWR sky130_fd_sc_hd__decap_12
Xmem_bottom_ipin_0.sc_dff_compact_0_.sky130_fd_sc_hd__dfrbp_1 ccff_head mem_bottom_ipin_0.sc_dff_compact_1_.sky130_fd_sc_hd__dfrbp_1/D
+ mem_bottom_ipin_0.sc_dff_compact_0_.sky130_fd_sc_hd__dfrbp_1/Q_N pReset clkbuf_1_1_0_prog_clk/X
+ _02_/VGND _02_/VPWR sky130_fd_sc_hd__dfrbp_1
XFILLER_9_11 PHY_19/VGND PHY_21/VPWR sky130_fd_sc_hd__fill_2
XFILLER_9_44 PHY_19/VGND PHY_21/VPWR sky130_fd_sc_hd__decap_12
XANTENNA_mem_top_ipin_0.sc_dff_compact_2_.sky130_fd_sc_hd__dfrbp_1_D mem_top_ipin_0.sc_dff_compact_1_.sky130_fd_sc_hd__dfrbp_1/Q
+ PHY_27/VGND PHY_25/VPWR sky130_fd_sc_hd__diode_2
XFILLER_20_32 _07_/VGND _06_/VPWR sky130_fd_sc_hd__decap_12
XFILLER_20_10 _07_/VGND _06_/VPWR sky130_fd_sc_hd__decap_12
XFILLER_6_78 PHY_15/VGND PHY_13/VPWR sky130_fd_sc_hd__fill_2
XANTENNA_mem_top_ipin_0.sc_dff_compact_5_.sky130_fd_sc_hd__dfrbp_1_CLK clkbuf_1_1_0_prog_clk/X
+ PHY_19/VGND PHY_21/VPWR sky130_fd_sc_hd__diode_2
XFILLER_13_3 PHY_27/VGND _20_/VPWR sky130_fd_sc_hd__decap_12
XFILLER_15_98 _17_/VGND _13_/VPWR sky130_fd_sc_hd__decap_12
XFILLER_15_10 _17_/VGND _13_/VPWR sky130_fd_sc_hd__fill_2
XFILLER_13_123 PHY_27/VGND _20_/VPWR sky130_fd_sc_hd__fill_2
XANTENNA_mem_top_ipin_1.sc_dff_compact_0_.sky130_fd_sc_hd__dfrbp_1_D mem_top_ipin_0.sc_dff_compact_5_.sky130_fd_sc_hd__dfrbp_1/Q
+ PHY_15/VGND PHY_17/VPWR sky130_fd_sc_hd__diode_2
XFILLER_10_137 PHY_23/VGND PHY_21/VPWR sky130_fd_sc_hd__fill_2
XANTENNA_mem_top_ipin_0.sc_dff_compact_5_.sky130_fd_sc_hd__dfrbp_1_D mem_top_ipin_0.sc_dff_compact_4_.sky130_fd_sc_hd__dfrbp_1/Q
+ PHY_19/VGND PHY_21/VPWR sky130_fd_sc_hd__diode_2
XFILLER_23_32 _09_/VGND _09_/VPWR sky130_fd_sc_hd__decap_12
XFILLER_23_87 _09_/VGND _09_/VPWR sky130_fd_sc_hd__decap_6
XANTENNA_mem_bottom_ipin_1.sc_dff_compact_1_.sky130_fd_sc_hd__dfrbp_1_RESET_B pReset
+ _01_/VGND _01_/VPWR sky130_fd_sc_hd__diode_2
XFILLER_0_36 _02_/VGND PHY_1/VPWR sky130_fd_sc_hd__decap_12
XFILLER_9_56 PHY_19/VGND PHY_21/VPWR sky130_fd_sc_hd__decap_4
XANTENNA_mem_bottom_ipin_1.sc_dff_compact_0_.sky130_fd_sc_hd__dfrbp_1_CLK clkbuf_1_0_0_prog_clk/X
+ _02_/VGND PHY_1/VPWR sky130_fd_sc_hd__diode_2
XFILLER_18_32 _11_/VGND _22_/VPWR sky130_fd_sc_hd__decap_12
XANTENNA_mem_bottom_ipin_2.sc_dff_compact_1_.sky130_fd_sc_hd__dfrbp_1_CLK clkbuf_1_0_0_prog_clk/X
+ PHY_15/VGND PHY_13/VPWR sky130_fd_sc_hd__diode_2
XFILLER_20_44 _07_/VGND _06_/VPWR sky130_fd_sc_hd__decap_12
XFILLER_20_22 _07_/VGND _06_/VPWR sky130_fd_sc_hd__decap_8
XFILLER_22_124 _09_/VGND _08_/VPWR sky130_fd_sc_hd__decap_12
XFILLER_3_36 _01_/VGND _01_/VPWR sky130_fd_sc_hd__decap_12
XFILLER_12_78 PHY_27/VGND PHY_25/VPWR sky130_fd_sc_hd__decap_12
XANTENNA_mem_top_ipin_2.sc_dff_compact_1_.sky130_fd_sc_hd__dfrbp_1_D mem_top_ipin_2.sc_dff_compact_0_.sky130_fd_sc_hd__dfrbp_1/Q
+ _02_/VGND _02_/VPWR sky130_fd_sc_hd__diode_2
XFILLER_23_44 _09_/VGND _09_/VPWR sky130_fd_sc_hd__decap_12
XFILLER_3_3 _01_/VGND _01_/VPWR sky130_fd_sc_hd__fill_2
XFILLER_0_15 _02_/VGND PHY_1/VPWR sky130_fd_sc_hd__decap_12
XFILLER_18_44 _11_/VGND _22_/VPWR sky130_fd_sc_hd__decap_12
XANTENNA_clkbuf_1_0_0_prog_clk_A clkbuf_0_prog_clk/X PHY_19/VGND PHY_17/VPWR sky130_fd_sc_hd__diode_2
XFILLER_6_14 PHY_15/VGND PHY_13/VPWR sky130_fd_sc_hd__fill_2
XFILLER_22_136 _09_/VGND _08_/VPWR sky130_fd_sc_hd__decap_3
XFILLER_3_59 _01_/VGND _01_/VPWR sky130_fd_sc_hd__fill_2
XFILLER_3_48 _01_/VGND _01_/VPWR sky130_fd_sc_hd__fill_1
XFILLER_5_7 PHY_9/VGND PHY_13/VPWR sky130_fd_sc_hd__fill_1
XANTENNA_mem_bottom_ipin_0.sc_dff_compact_1_.sky130_fd_sc_hd__dfrbp_1_RESET_B pReset
+ PHY_9/VGND PHY_13/VPWR sky130_fd_sc_hd__diode_2
XFILLER_5_121 PHY_9/VGND PHY_13/VPWR sky130_fd_sc_hd__fill_1
XANTENNA_mem_bottom_ipin_2.sc_dff_compact_2_.sky130_fd_sc_hd__dfrbp_1_RESET_B pReset
+ PHY_19/VGND PHY_21/VPWR sky130_fd_sc_hd__diode_2
XFILLER_23_56 _09_/VGND _09_/VPWR sky130_fd_sc_hd__decap_6
XANTENNA__12__A chanx_in_4_ _07_/VGND _08_/VPWR sky130_fd_sc_hd__diode_2
XFILLER_0_27 _02_/VGND PHY_1/VPWR sky130_fd_sc_hd__decap_4
XFILLER_9_36 PHY_19/VGND PHY_21/VPWR sky130_fd_sc_hd__fill_2
XANTENNA__07__A chanx_in_16_ _07_/VGND _08_/VPWR sky130_fd_sc_hd__diode_2
XFILLER_18_56 _11_/VGND _22_/VPWR sky130_fd_sc_hd__decap_12
XFILLER_1_70 _02_/VGND _02_/VPWR sky130_fd_sc_hd__fill_2
XFILLER_19_120 _11_/VGND _06_/VPWR sky130_fd_sc_hd__fill_2
XFILLER_10_90 PHY_23/VGND PHY_21/VPWR sky130_fd_sc_hd__fill_2
XANTENNA__20__A chanx_in_11_ PHY_27/VGND _20_/VPWR sky130_fd_sc_hd__diode_2
XFILLER_11_3 PHY_23/VGND PHY_25/VPWR sky130_fd_sc_hd__decap_8
XANTENNA__15__A chanx_in_7_ _17_/VGND _13_/VPWR sky130_fd_sc_hd__diode_2
XFILLER_9_108 PHY_19/VGND PHY_21/VPWR sky130_fd_sc_hd__fill_2
XFILLER_8_130 PHY_19/VGND PHY_17/VPWR sky130_fd_sc_hd__decap_8
XFILLER_12_25 PHY_27/VGND PHY_25/VPWR sky130_fd_sc_hd__decap_6
XFILLER_12_36 PHY_27/VGND PHY_25/VPWR sky130_fd_sc_hd__fill_1
XFILLER_12_69 PHY_27/VGND PHY_25/VPWR sky130_fd_sc_hd__fill_2
XFILLER_4_81 PHY_9/VGND _01_/VPWR sky130_fd_sc_hd__decap_8
Xmem_top_ipin_1.sc_dff_compact_1_.sky130_fd_sc_hd__dfrbp_1 mem_top_ipin_1.sc_dff_compact_0_.sky130_fd_sc_hd__dfrbp_1/Q
+ mem_top_ipin_1.sc_dff_compact_1_.sky130_fd_sc_hd__dfrbp_1/Q mem_top_ipin_1.sc_dff_compact_1_.sky130_fd_sc_hd__dfrbp_1/Q_N
+ pReset clkbuf_1_1_0_prog_clk/X PHY_15/VGND PHY_13/VPWR sky130_fd_sc_hd__dfrbp_1
XFILLER_18_68 _11_/VGND _22_/VPWR sky130_fd_sc_hd__decap_12
Xmem_bottom_ipin_0.sc_dff_compact_3_.sky130_fd_sc_hd__dfrbp_1 mem_bottom_ipin_0.sc_dff_compact_2_.sky130_fd_sc_hd__dfrbp_1/Q
+ mem_bottom_ipin_0.sc_dff_compact_3_.sky130_fd_sc_hd__dfrbp_1/Q mem_bottom_ipin_0.sc_dff_compact_3_.sky130_fd_sc_hd__dfrbp_1/Q_N
+ pReset clkbuf_1_0_0_prog_clk/X PHY_15/VGND PHY_13/VPWR sky130_fd_sc_hd__dfrbp_1
XANTENNA__23__A chanx_in_14_ _07_/VGND _08_/VPWR sky130_fd_sc_hd__diode_2
XANTENNA__18__A chanx_in_0_ _07_/VGND _08_/VPWR sky130_fd_sc_hd__diode_2
XFILLER_19_110 _11_/VGND _06_/VPWR sky130_fd_sc_hd__decap_8
XFILLER_15_58 _17_/VGND _13_/VPWR sky130_fd_sc_hd__decap_3
XFILLER_15_14 _17_/VGND _13_/VPWR sky130_fd_sc_hd__decap_12
XFILLER_21_90 _07_/VGND _08_/VPWR sky130_fd_sc_hd__fill_2
XFILLER_22_105 _09_/VGND _08_/VPWR sky130_fd_sc_hd__decap_12
XFILLER_13_127 PHY_27/VGND _20_/VPWR sky130_fd_sc_hd__decap_12
XFILLER_5_123 PHY_9/VGND PHY_13/VPWR sky130_fd_sc_hd__decap_12
XFILLER_4_93 PHY_9/VGND _01_/VPWR sky130_fd_sc_hd__decap_12
XANTENNA_mem_top_ipin_0.sc_dff_compact_4_.sky130_fd_sc_hd__dfrbp_1_CLK clkbuf_1_1_0_prog_clk/X
+ PHY_23/VGND PHY_25/VPWR sky130_fd_sc_hd__diode_2
XFILLER_1_3 _02_/VGND _02_/VPWR sky130_fd_sc_hd__decap_12
XFILLER_19_133 _11_/VGND _06_/VPWR sky130_fd_sc_hd__decap_6
XANTENNA_mem_bottom_ipin_0.sc_dff_compact_0_.sky130_fd_sc_hd__dfrbp_1_D ccff_head
+ _02_/VGND _02_/VPWR sky130_fd_sc_hd__diode_2
XFILLER_15_26 _17_/VGND _13_/VPWR sky130_fd_sc_hd__decap_12
XFILLER_16_125 _13_/VGND _13_/VPWR sky130_fd_sc_hd__decap_12
XFILLER_22_117 _09_/VGND _08_/VPWR sky130_fd_sc_hd__decap_3
XPHY_0 _02_/VGND PHY_1/VPWR sky130_fd_sc_hd__decap_3
XFILLER_7_60 PHY_15/VGND PHY_17/VPWR sky130_fd_sc_hd__fill_1
XFILLER_7_93 PHY_15/VGND PHY_17/VPWR sky130_fd_sc_hd__fill_2
XFILLER_16_80 _13_/VGND _13_/VPWR sky130_fd_sc_hd__decap_12
XANTENNA_mem_bottom_ipin_2.sc_dff_compact_0_.sky130_fd_sc_hd__dfrbp_1_CLK clkbuf_1_0_0_prog_clk/X
+ PHY_9/VGND _01_/VPWR sky130_fd_sc_hd__diode_2
XFILLER_5_102 PHY_9/VGND PHY_13/VPWR sky130_fd_sc_hd__decap_4
XFILLER_5_113 PHY_9/VGND PHY_13/VPWR sky130_fd_sc_hd__fill_2
XFILLER_5_135 PHY_9/VGND PHY_13/VPWR sky130_fd_sc_hd__decap_4
XFILLER_23_15 _09_/VGND _09_/VPWR sky130_fd_sc_hd__decap_12
XFILLER_4_72 PHY_9/VGND _01_/VPWR sky130_fd_sc_hd__decap_6
XFILLER_3_7 _01_/VGND _01_/VPWR sky130_fd_sc_hd__fill_2
XANTENNA_mem_bottom_ipin_0.sc_dff_compact_3_.sky130_fd_sc_hd__dfrbp_1_D mem_bottom_ipin_0.sc_dff_compact_2_.sky130_fd_sc_hd__dfrbp_1/Q
+ PHY_9/VGND PHY_13/VPWR sky130_fd_sc_hd__diode_2
XFILLER_18_15 _11_/VGND _22_/VPWR sky130_fd_sc_hd__decap_12
Xmem_bottom_ipin_2.sc_dff_compact_1_.sky130_fd_sc_hd__dfrbp_1 mem_bottom_ipin_2.sc_dff_compact_1_.sky130_fd_sc_hd__dfrbp_1/D
+ mem_bottom_ipin_2.sc_dff_compact_1_.sky130_fd_sc_hd__dfrbp_1/Q mem_bottom_ipin_2.sc_dff_compact_1_.sky130_fd_sc_hd__dfrbp_1/Q_N
+ pReset clkbuf_1_0_0_prog_clk/X PHY_15/VGND PHY_17/VPWR sky130_fd_sc_hd__dfrbp_1
Xmem_top_ipin_0.sc_dff_compact_0_.sky130_fd_sc_hd__dfrbp_1 mem_top_ipin_0.sc_dff_compact_0_.sky130_fd_sc_hd__dfrbp_1/D
+ mem_top_ipin_0.sc_dff_compact_1_.sky130_fd_sc_hd__dfrbp_1/D mem_top_ipin_0.sc_dff_compact_0_.sky130_fd_sc_hd__dfrbp_1/Q_N
+ pReset clkbuf_1_0_0_prog_clk/X PHY_27/VGND PHY_25/VPWR sky130_fd_sc_hd__dfrbp_1
XFILLER_1_62 _02_/VGND _02_/VPWR sky130_fd_sc_hd__decap_8
XFILLER_19_123 _11_/VGND _06_/VPWR sky130_fd_sc_hd__fill_2
XFILLER_6_18 PHY_15/VGND PHY_13/VPWR sky130_fd_sc_hd__decap_12
XFILLER_10_93 PHY_23/VGND PHY_21/VPWR sky130_fd_sc_hd__fill_2
X_09_ chanx_in_1_ chanx_out_1_ _09_/VGND _09_/VPWR sky130_fd_sc_hd__buf_2
XFILLER_15_38 _17_/VGND _13_/VPWR sky130_fd_sc_hd__decap_12
XANTENNA_mem_bottom_ipin_0.sc_dff_compact_2_.sky130_fd_sc_hd__dfrbp_1_RESET_B pReset
+ PHY_15/VGND PHY_17/VPWR sky130_fd_sc_hd__diode_2
XFILLER_16_137 _13_/VGND _13_/VPWR sky130_fd_sc_hd__fill_2
XANTENNA_mem_bottom_ipin_1.sc_dff_compact_1_.sky130_fd_sc_hd__dfrbp_1_D mem_bottom_ipin_1.sc_dff_compact_1_.sky130_fd_sc_hd__dfrbp_1/D
+ _01_/VGND _02_/VPWR sky130_fd_sc_hd__diode_2
XPHY_1 _02_/VGND PHY_1/VPWR sky130_fd_sc_hd__decap_3
XANTENNA_mem_bottom_ipin_2.sc_dff_compact_3_.sky130_fd_sc_hd__dfrbp_1_RESET_B pReset
+ PHY_19/VGND PHY_21/VPWR sky130_fd_sc_hd__diode_2
XFILLER_12_17 PHY_27/VGND PHY_25/VPWR sky130_fd_sc_hd__decap_6
XFILLER_23_27 _09_/VGND _09_/VPWR sky130_fd_sc_hd__decap_4
XFILLER_2_106 _01_/VGND _02_/VPWR sky130_fd_sc_hd__fill_2
XFILLER_18_27 _11_/VGND _22_/VPWR sky130_fd_sc_hd__decap_4
XFILLER_1_74 _02_/VGND _02_/VPWR sky130_fd_sc_hd__fill_2
X_08_ chanx_in_17_ chanx_out_17_ _09_/VGND _08_/VPWR sky130_fd_sc_hd__buf_2
XFILLER_16_105 _13_/VGND _13_/VPWR sky130_fd_sc_hd__decap_12
XFILLER_21_82 _07_/VGND _08_/VPWR sky130_fd_sc_hd__decap_4
XPHY_2 _02_/VGND _02_/VPWR sky130_fd_sc_hd__decap_3
XFILLER_13_119 PHY_27/VGND _20_/VPWR sky130_fd_sc_hd__decap_3
XFILLER_7_40 PHY_15/VGND PHY_17/VPWR sky130_fd_sc_hd__decap_12
XFILLER_7_62 PHY_15/VGND PHY_17/VPWR sky130_fd_sc_hd__decap_4
XFILLER_16_93 _13_/VGND _13_/VPWR sky130_fd_sc_hd__decap_12
XFILLER_12_130 PHY_27/VGND PHY_25/VPWR sky130_fd_sc_hd__decap_8
XANTENNA_mem_bottom_ipin_2.sc_dff_compact_2_.sky130_fd_sc_hd__dfrbp_1_D mem_bottom_ipin_2.sc_dff_compact_1_.sky130_fd_sc_hd__dfrbp_1/Q
+ PHY_19/VGND PHY_17/VPWR sky130_fd_sc_hd__diode_2
XFILLER_4_30 PHY_9/VGND _01_/VPWR sky130_fd_sc_hd__fill_1
XFILLER_13_50 PHY_27/VGND _20_/VPWR sky130_fd_sc_hd__fill_1
XFILLER_1_53 _02_/VGND _02_/VPWR sky130_fd_sc_hd__fill_2
Xmem_bottom_ipin_1.sc_dff_compact_0_.sky130_fd_sc_hd__dfrbp_1 mem_bottom_ipin_0.sc_dff_compact_5_.sky130_fd_sc_hd__dfrbp_1/Q
+ mem_bottom_ipin_1.sc_dff_compact_1_.sky130_fd_sc_hd__dfrbp_1/D mem_bottom_ipin_1.sc_dff_compact_0_.sky130_fd_sc_hd__dfrbp_1/Q_N
+ pReset clkbuf_1_0_0_prog_clk/X _02_/VGND _02_/VPWR sky130_fd_sc_hd__dfrbp_1
X_07_ chanx_in_16_ chanx_out_16_ _07_/VGND _08_/VPWR sky130_fd_sc_hd__buf_2
XANTENNA_mem_bottom_ipin_2.sc_dff_compact_5_.sky130_fd_sc_hd__dfrbp_1_D mem_bottom_ipin_2.sc_dff_compact_5_.sky130_fd_sc_hd__dfrbp_1/D
+ PHY_27/VGND PHY_25/VPWR sky130_fd_sc_hd__diode_2
XFILLER_21_94 _07_/VGND _08_/VPWR sky130_fd_sc_hd__decap_12
XFILLER_21_72 _07_/VGND _08_/VPWR sky130_fd_sc_hd__fill_2
XFILLER_16_117 _13_/VGND _13_/VPWR sky130_fd_sc_hd__decap_4
XPHY_3 _02_/VGND _02_/VPWR sky130_fd_sc_hd__decap_3
XFILLER_7_52 PHY_15/VGND PHY_17/VPWR sky130_fd_sc_hd__decap_8
XFILLER_21_120 _07_/VGND _08_/VPWR sky130_fd_sc_hd__fill_2
XFILLER_13_62 PHY_27/VGND _20_/VPWR sky130_fd_sc_hd__fill_2
XANTENNA_mem_bottom_ipin_0.sc_dff_compact_5_.sky130_fd_sc_hd__dfrbp_1_CLK clkbuf_1_0_0_prog_clk/X
+ _02_/VGND PHY_1/VPWR sky130_fd_sc_hd__diode_2
X_23_ chanx_in_14_ chanx_out_14_ _07_/VGND _08_/VPWR sky130_fd_sc_hd__buf_2
XFILLER_1_21 _02_/VGND _02_/VPWR sky130_fd_sc_hd__fill_1
X_06_ chanx_in_15_ chanx_out_15_ _07_/VGND _06_/VPWR sky130_fd_sc_hd__buf_2
XFILLER_21_62 _07_/VGND _08_/VPWR sky130_fd_sc_hd__fill_2
XFILLER_21_51 _07_/VGND _08_/VPWR sky130_fd_sc_hd__decap_4
XPHY_4 _01_/VGND _02_/VPWR sky130_fd_sc_hd__decap_3
XANTENNA_clkbuf_1_1_0_prog_clk_A clkbuf_0_prog_clk/X PHY_19/VGND PHY_17/VPWR sky130_fd_sc_hd__diode_2
XANTENNA_mem_top_ipin_0.sc_dff_compact_3_.sky130_fd_sc_hd__dfrbp_1_CLK clkbuf_1_1_0_prog_clk/X
+ PHY_27/VGND PHY_25/VPWR sky130_fd_sc_hd__diode_2
XFILLER_5_106 PHY_9/VGND PHY_13/VPWR sky130_fd_sc_hd__fill_1
XFILLER_5_117 PHY_9/VGND PHY_13/VPWR sky130_fd_sc_hd__decap_4
XFILLER_4_32 PHY_9/VGND _01_/VPWR sky130_fd_sc_hd__decap_12
XANTENNA_mem_bottom_ipin_0.sc_dff_compact_3_.sky130_fd_sc_hd__dfrbp_1_RESET_B pReset
+ PHY_9/VGND PHY_13/VPWR sky130_fd_sc_hd__diode_2
X_22_ chanx_in_13_ chanx_out_13_ _11_/VGND _22_/VPWR sky130_fd_sc_hd__buf_2
XFILLER_1_99 _02_/VGND _02_/VPWR sky130_fd_sc_hd__decap_4
XANTENNA_mem_bottom_ipin_2.sc_dff_compact_4_.sky130_fd_sc_hd__dfrbp_1_RESET_B pReset
+ PHY_23/VGND PHY_25/VPWR sky130_fd_sc_hd__diode_2
Xmem_bottom_ipin_2.sc_dff_compact_4_.sky130_fd_sc_hd__dfrbp_1 mem_bottom_ipin_2.sc_dff_compact_3_.sky130_fd_sc_hd__dfrbp_1/Q
+ mem_bottom_ipin_2.sc_dff_compact_5_.sky130_fd_sc_hd__dfrbp_1/D mem_bottom_ipin_2.sc_dff_compact_4_.sky130_fd_sc_hd__dfrbp_1/Q_N
+ pReset clkbuf_1_0_0_prog_clk/X PHY_23/VGND PHY_25/VPWR sky130_fd_sc_hd__dfrbp_1
Xmem_top_ipin_0.sc_dff_compact_3_.sky130_fd_sc_hd__dfrbp_1 mem_top_ipin_0.sc_dff_compact_2_.sky130_fd_sc_hd__dfrbp_1/Q
+ mem_top_ipin_0.sc_dff_compact_4_.sky130_fd_sc_hd__dfrbp_1/D mem_top_ipin_0.sc_dff_compact_3_.sky130_fd_sc_hd__dfrbp_1/Q_N
+ pReset clkbuf_1_1_0_prog_clk/X PHY_23/VGND PHY_25/VPWR sky130_fd_sc_hd__dfrbp_1
XFILLER_19_62 _11_/VGND _06_/VPWR sky130_fd_sc_hd__decap_12
XFILLER_19_51 _11_/VGND _06_/VPWR sky130_fd_sc_hd__decap_4
XFILLER_10_75 PHY_23/VGND PHY_21/VPWR sky130_fd_sc_hd__fill_1
XFILLER_10_97 PHY_23/VGND PHY_21/VPWR sky130_fd_sc_hd__decap_4
X_05_ _05_/HI top_grid_pin_6_ _09_/VGND _08_/VPWR sky130_fd_sc_hd__conb_1
XFILLER_18_3 _11_/VGND _22_/VPWR sky130_fd_sc_hd__decap_12
XPHY_5 _01_/VGND _02_/VPWR sky130_fd_sc_hd__decap_3
XFILLER_7_10 PHY_15/VGND PHY_17/VPWR sky130_fd_sc_hd__fill_2
XFILLER_7_98 PHY_15/VGND PHY_17/VPWR sky130_fd_sc_hd__decap_8
XFILLER_21_133 _07_/VGND _08_/VPWR sky130_fd_sc_hd__decap_6
XFILLER_4_11 PHY_9/VGND _01_/VPWR sky130_fd_sc_hd__fill_1
XFILLER_4_44 PHY_9/VGND _01_/VPWR sky130_fd_sc_hd__decap_4
XFILLER_13_53 PHY_27/VGND _20_/VPWR sky130_fd_sc_hd__fill_2
X_21_ chanx_in_12_ chanx_out_12_ _07_/VGND _08_/VPWR sky130_fd_sc_hd__buf_2
XANTENNA_mem_top_ipin_2.sc_dff_compact_0_.sky130_fd_sc_hd__dfrbp_1_RESET_B pReset
+ _01_/VGND _01_/VPWR sky130_fd_sc_hd__diode_2
XFILLER_19_74 _11_/VGND _06_/VPWR sky130_fd_sc_hd__decap_12
XFILLER_10_32 PHY_23/VGND PHY_21/VPWR sky130_fd_sc_hd__fill_2
X_04_ _04_/HI top_grid_pin_2_ _07_/VGND _06_/VPWR sky130_fd_sc_hd__conb_1
XFILLER_15_120 _17_/VGND _13_/VPWR sky130_fd_sc_hd__fill_2
XPHY_6 _01_/VGND _01_/VPWR sky130_fd_sc_hd__decap_3
XFILLER_21_123 _07_/VGND _08_/VPWR sky130_fd_sc_hd__fill_2
XFILLER_8_105 PHY_19/VGND PHY_17/VPWR sky130_fd_sc_hd__fill_2
XFILLER_8_138 PHY_19/VGND PHY_17/VPWR sky130_fd_sc_hd__fill_1
XFILLER_4_78 PHY_9/VGND _01_/VPWR sky130_fd_sc_hd__fill_1
XFILLER_4_89 PHY_9/VGND _01_/VPWR sky130_fd_sc_hd__decap_3
XANTENNA_mem_top_ipin_0.sc_dff_compact_1_.sky130_fd_sc_hd__dfrbp_1_D mem_top_ipin_0.sc_dff_compact_1_.sky130_fd_sc_hd__dfrbp_1/D
+ PHY_27/VGND _20_/VPWR sky130_fd_sc_hd__diode_2
XFILLER_13_87 PHY_27/VGND _20_/VPWR sky130_fd_sc_hd__decap_12
XFILLER_8_3 PHY_19/VGND PHY_17/VPWR sky130_fd_sc_hd__decap_8
XFILLER_13_21 PHY_27/VGND _20_/VPWR sky130_fd_sc_hd__fill_2
X_20_ chanx_in_11_ chanx_out_11_ _17_/VGND _20_/VPWR sky130_fd_sc_hd__buf_2
XFILLER_1_57 _02_/VGND _02_/VPWR sky130_fd_sc_hd__decap_4
XFILLER_1_24 _02_/VGND _02_/VPWR sky130_fd_sc_hd__fill_2
XFILLER_19_129 _11_/VGND _06_/VPWR sky130_fd_sc_hd__fill_2
Xclkbuf_0_prog_clk prog_clk clkbuf_0_prog_clk/X PHY_19/VGND PHY_17/VPWR sky130_fd_sc_hd__clkbuf_16
X_03_ _03_/HI top_grid_pin_14_ _07_/VGND _08_/VPWR sky130_fd_sc_hd__conb_1
XFILLER_19_86 _11_/VGND _06_/VPWR sky130_fd_sc_hd__decap_12
Xmem_top_ipin_2.sc_dff_compact_1_.sky130_fd_sc_hd__dfrbp_1 mem_top_ipin_2.sc_dff_compact_0_.sky130_fd_sc_hd__dfrbp_1/Q
+ ccff_tail mem_top_ipin_2.sc_dff_compact_1_.sky130_fd_sc_hd__dfrbp_1/Q_N pReset clkbuf_1_1_0_prog_clk/X
+ _01_/VGND _02_/VPWR sky130_fd_sc_hd__dfrbp_1
XFILLER_21_10 _07_/VGND _08_/VPWR sky130_fd_sc_hd__fill_2
XFILLER_15_110 _17_/VGND _13_/VPWR sky130_fd_sc_hd__decap_8
XPHY_7 _01_/VGND _01_/VPWR sky130_fd_sc_hd__decap_3
XFILLER_23_3 _09_/VGND _09_/VPWR sky130_fd_sc_hd__decap_12
XFILLER_16_32 _13_/VGND _13_/VPWR sky130_fd_sc_hd__decap_12
XANTENNA_mem_top_ipin_0.sc_dff_compact_4_.sky130_fd_sc_hd__dfrbp_1_D mem_top_ipin_0.sc_dff_compact_4_.sky130_fd_sc_hd__dfrbp_1/D
+ PHY_23/VGND PHY_21/VPWR sky130_fd_sc_hd__diode_2
XFILLER_5_109 PHY_9/VGND PHY_13/VPWR sky130_fd_sc_hd__fill_2
XFILLER_4_131 PHY_9/VGND _01_/VPWR sky130_fd_sc_hd__decap_8
XANTENNA_mem_top_ipin_1.sc_dff_compact_0_.sky130_fd_sc_hd__dfrbp_1_RESET_B pReset
+ PHY_15/VGND PHY_17/VPWR sky130_fd_sc_hd__diode_2
XFILLER_13_99 PHY_27/VGND _20_/VPWR sky130_fd_sc_hd__decap_12
XFILLER_1_123 _02_/VGND _02_/VPWR sky130_fd_sc_hd__decap_12
XFILLER_10_78 PHY_23/VGND PHY_21/VPWR sky130_fd_sc_hd__decap_12
XFILLER_19_98 _11_/VGND _06_/VPWR sky130_fd_sc_hd__decap_12
X_02_ _02_/HI bottom_grid_pin_0_ _02_/VGND _02_/VPWR sky130_fd_sc_hd__conb_1
XFILLER_21_55 _07_/VGND _08_/VPWR sky130_fd_sc_hd__fill_1
XFILLER_2_90 _01_/VGND _02_/VPWR sky130_fd_sc_hd__fill_2
XFILLER_16_3 _13_/VGND _13_/VPWR sky130_fd_sc_hd__decap_12
XFILLER_15_133 _17_/VGND _13_/VPWR sky130_fd_sc_hd__decap_6
XPHY_8 PHY_9/VGND _01_/VPWR sky130_fd_sc_hd__decap_3
XFILLER_7_35 PHY_15/VGND PHY_17/VPWR sky130_fd_sc_hd__fill_2
XFILLER_7_68 PHY_15/VGND PHY_17/VPWR sky130_fd_sc_hd__fill_2
XFILLER_16_44 _13_/VGND _13_/VPWR sky130_fd_sc_hd__decap_12
XANTENNA_mem_top_ipin_2.sc_dff_compact_0_.sky130_fd_sc_hd__dfrbp_1_D mem_top_ipin_1.sc_dff_compact_1_.sky130_fd_sc_hd__dfrbp_1/Q
+ _01_/VGND _01_/VPWR sky130_fd_sc_hd__diode_2
XANTENNA_mem_bottom_ipin_0.sc_dff_compact_4_.sky130_fd_sc_hd__dfrbp_1_CLK clkbuf_1_0_0_prog_clk/X
+ _01_/VGND _01_/VPWR sky130_fd_sc_hd__diode_2
XANTENNA_mem_bottom_ipin_0.sc_dff_compact_4_.sky130_fd_sc_hd__dfrbp_1_RESET_B pReset
+ _01_/VGND _01_/VPWR sky130_fd_sc_hd__diode_2
XFILLER_4_14 PHY_9/VGND _01_/VPWR sky130_fd_sc_hd__fill_2
XANTENNA_mem_bottom_ipin_2.sc_dff_compact_5_.sky130_fd_sc_hd__dfrbp_1_RESET_B pReset
+ PHY_27/VGND _20_/VPWR sky130_fd_sc_hd__diode_2
XFILLER_1_135 _02_/VGND _02_/VPWR sky130_fd_sc_hd__decap_4
XFILLER_1_15 _02_/VGND _02_/VPWR sky130_fd_sc_hd__decap_6
XFILLER_19_55 _11_/VGND _06_/VPWR sky130_fd_sc_hd__fill_1
XFILLER_10_57 PHY_23/VGND PHY_21/VPWR sky130_fd_sc_hd__decap_12
XANTENNA_mem_top_ipin_0.sc_dff_compact_2_.sky130_fd_sc_hd__dfrbp_1_CLK clkbuf_1_1_0_prog_clk/X
+ PHY_27/VGND PHY_25/VPWR sky130_fd_sc_hd__diode_2
X_01_ _01_/HI bottom_grid_pin_4_ _01_/VGND _01_/VPWR sky130_fd_sc_hd__conb_1
XFILLER_21_78 _07_/VGND _08_/VPWR sky130_fd_sc_hd__fill_2
XANTENNA__10__A chanx_in_2_ _07_/VGND _08_/VPWR sky130_fd_sc_hd__diode_2
XFILLER_15_123 _17_/VGND _13_/VPWR sky130_fd_sc_hd__fill_2
XPHY_9 PHY_9/VGND _01_/VPWR sky130_fd_sc_hd__decap_3
Xmem_top_ipin_1.sc_dff_compact_0_.sky130_fd_sc_hd__dfrbp_1 mem_top_ipin_0.sc_dff_compact_5_.sky130_fd_sc_hd__dfrbp_1/Q
+ mem_top_ipin_1.sc_dff_compact_0_.sky130_fd_sc_hd__dfrbp_1/Q mem_top_ipin_1.sc_dff_compact_0_.sky130_fd_sc_hd__dfrbp_1/Q_N
+ pReset clkbuf_1_1_0_prog_clk/X PHY_19/VGND PHY_17/VPWR sky130_fd_sc_hd__dfrbp_1
XFILLER_16_56 _13_/VGND _13_/VPWR sky130_fd_sc_hd__decap_12
Xmem_bottom_ipin_0.sc_dff_compact_2_.sky130_fd_sc_hd__dfrbp_1 mem_bottom_ipin_0.sc_dff_compact_2_.sky130_fd_sc_hd__dfrbp_1/D
+ mem_bottom_ipin_0.sc_dff_compact_2_.sky130_fd_sc_hd__dfrbp_1/Q mem_bottom_ipin_0.sc_dff_compact_2_.sky130_fd_sc_hd__dfrbp_1/Q_N
+ pReset clkbuf_1_1_0_prog_clk/X PHY_15/VGND PHY_17/VPWR sky130_fd_sc_hd__dfrbp_1
XANTENNA_mem_top_ipin_0.sc_dff_compact_0_.sky130_fd_sc_hd__dfrbp_1_RESET_B pReset
+ PHY_23/VGND PHY_25/VPWR sky130_fd_sc_hd__diode_2
XANTENNA_mem_top_ipin_2.sc_dff_compact_1_.sky130_fd_sc_hd__dfrbp_1_RESET_B pReset
+ _02_/VGND _02_/VPWR sky130_fd_sc_hd__diode_2
XFILLER_4_48 PHY_9/VGND _01_/VPWR sky130_fd_sc_hd__fill_1
XFILLER_1_114 _02_/VGND _02_/VPWR sky130_fd_sc_hd__fill_2
XFILLER_13_46 PHY_27/VGND _20_/VPWR sky130_fd_sc_hd__decap_4
XFILLER_13_57 PHY_27/VGND _20_/VPWR sky130_fd_sc_hd__decap_4
XANTENNA__13__A chanx_in_5_ _17_/VGND _13_/VPWR sky130_fd_sc_hd__diode_2
XFILLER_6_3 PHY_15/VGND PHY_13/VPWR sky130_fd_sc_hd__decap_8
XANTENNA__08__A chanx_in_17_ _07_/VGND _08_/VPWR sky130_fd_sc_hd__diode_2
XFILLER_10_69 PHY_23/VGND PHY_21/VPWR sky130_fd_sc_hd__decap_6
X_00_ _00_/HI bottom_grid_pin_8_ _01_/VGND _02_/VPWR sky130_fd_sc_hd__conb_1
XFILLER_21_68 _07_/VGND _08_/VPWR sky130_fd_sc_hd__fill_2
XFILLER_21_35 _07_/VGND _08_/VPWR sky130_fd_sc_hd__decap_8
XFILLER_21_24 _07_/VGND _08_/VPWR sky130_fd_sc_hd__fill_2
XANTENNA__21__A chanx_in_12_ _07_/VGND _08_/VPWR sky130_fd_sc_hd__diode_2
XFILLER_16_68 _13_/VGND _13_/VPWR sky130_fd_sc_hd__decap_12
XFILLER_12_138 PHY_27/VGND PHY_25/VPWR sky130_fd_sc_hd__fill_1
XFILLER_21_3 _07_/VGND _08_/VPWR sky130_fd_sc_hd__decap_3
XANTENNA__16__A chanx_in_8_ _07_/VGND _08_/VPWR sky130_fd_sc_hd__diode_2
XFILLER_8_80 PHY_19/VGND PHY_17/VPWR sky130_fd_sc_hd__decap_6
XFILLER_1_28 _02_/VGND _02_/VPWR sky130_fd_sc_hd__fill_2
XANTENNA_clkbuf_0_prog_clk_A prog_clk PHY_19/VGND PHY_17/VPWR sky130_fd_sc_hd__diode_2
XFILLER_2_93 _01_/VGND _02_/VPWR sky130_fd_sc_hd__fill_2
XFILLER_2_71 _01_/VGND _02_/VPWR sky130_fd_sc_hd__decap_4
XANTENNA__19__A chanx_in_10_ _07_/VGND _08_/VPWR sky130_fd_sc_hd__diode_2
XFILLER_21_58 _07_/VGND _08_/VPWR sky130_fd_sc_hd__decap_3
XFILLER_21_47 _07_/VGND _08_/VPWR sky130_fd_sc_hd__fill_2
XFILLER_21_14 _07_/VGND _08_/VPWR sky130_fd_sc_hd__decap_6
XFILLER_21_106 _07_/VGND _08_/VPWR sky130_fd_sc_hd__decap_12
XANTENNA_mem_top_ipin_1.sc_dff_compact_1_.sky130_fd_sc_hd__dfrbp_1_RESET_B pReset
+ PHY_9/VGND PHY_13/VPWR sky130_fd_sc_hd__diode_2
Xmem_bottom_ipin_2.sc_dff_compact_0_.sky130_fd_sc_hd__dfrbp_1 mem_bottom_ipin_2.sc_dff_compact_0_.sky130_fd_sc_hd__dfrbp_1/D
+ mem_bottom_ipin_2.sc_dff_compact_1_.sky130_fd_sc_hd__dfrbp_1/D mem_bottom_ipin_2.sc_dff_compact_0_.sky130_fd_sc_hd__dfrbp_1/Q_N
+ pReset clkbuf_1_0_0_prog_clk/X PHY_9/VGND PHY_13/VPWR sky130_fd_sc_hd__dfrbp_1
XFILLER_7_121 PHY_15/VGND PHY_17/VPWR sky130_fd_sc_hd__fill_1
XFILLER_14_3 _17_/VGND _20_/VPWR sky130_fd_sc_hd__decap_12
XFILLER_13_15 PHY_27/VGND _20_/VPWR sky130_fd_sc_hd__decap_4
XFILLER_1_105 _02_/VGND _02_/VPWR sky130_fd_sc_hd__fill_2
XFILLER_19_58 _11_/VGND _06_/VPWR sky130_fd_sc_hd__decap_3
XANTENNA_mem_bottom_ipin_0.sc_dff_compact_5_.sky130_fd_sc_hd__dfrbp_1_RESET_B pReset
+ _02_/VGND _02_/VPWR sky130_fd_sc_hd__diode_2
XPHY_90 _07_/VGND _06_/VPWR sky130_fd_sc_hd__tapvpwrvgnd_1
XFILLER_21_129 _07_/VGND _08_/VPWR sky130_fd_sc_hd__fill_2
XFILLER_11_70 PHY_23/VGND PHY_25/VPWR sky130_fd_sc_hd__fill_2
XFILLER_16_15 _13_/VGND _13_/VPWR sky130_fd_sc_hd__decap_12
XFILLER_12_118 PHY_27/VGND PHY_25/VPWR sky130_fd_sc_hd__decap_12
XANTENNA_mem_bottom_ipin_0.sc_dff_compact_2_.sky130_fd_sc_hd__dfrbp_1_D mem_bottom_ipin_0.sc_dff_compact_2_.sky130_fd_sc_hd__dfrbp_1/D
+ PHY_15/VGND PHY_13/VPWR sky130_fd_sc_hd__diode_2
XFILLER_8_93 PHY_19/VGND PHY_17/VPWR sky130_fd_sc_hd__decap_12
XFILLER_4_18 PHY_9/VGND _01_/VPWR sky130_fd_sc_hd__decap_12
XFILLER_5_72 PHY_9/VGND PHY_13/VPWR sky130_fd_sc_hd__decap_3
XANTENNA_mem_bottom_ipin_1.sc_dff_compact_0_.sky130_fd_sc_hd__dfrbp_1_D mem_bottom_ipin_0.sc_dff_compact_5_.sky130_fd_sc_hd__dfrbp_1/Q
+ _02_/VGND _02_/VPWR sky130_fd_sc_hd__diode_2
XFILLER_10_17 PHY_23/VGND PHY_21/VPWR sky130_fd_sc_hd__decap_12
XFILLER_19_15 _11_/VGND _06_/VPWR sky130_fd_sc_hd__decap_12
XFILLER_4_3 PHY_9/VGND _01_/VPWR sky130_fd_sc_hd__decap_8
XANTENNA_mem_top_ipin_0.sc_dff_compact_1_.sky130_fd_sc_hd__dfrbp_1_RESET_B pReset
+ PHY_27/VGND _20_/VPWR sky130_fd_sc_hd__diode_2
XPHY_91 _07_/VGND _06_/VPWR sky130_fd_sc_hd__tapvpwrvgnd_1
XPHY_80 _17_/VGND _13_/VPWR sky130_fd_sc_hd__tapvpwrvgnd_1
XANTENNA_mem_bottom_ipin_0.sc_dff_compact_3_.sky130_fd_sc_hd__dfrbp_1_CLK clkbuf_1_0_0_prog_clk/X
+ PHY_9/VGND PHY_13/VPWR sky130_fd_sc_hd__diode_2
XANTENNA_mem_bottom_ipin_0.sc_dff_compact_5_.sky130_fd_sc_hd__dfrbp_1_D mem_bottom_ipin_0.sc_dff_compact_4_.sky130_fd_sc_hd__dfrbp_1/Q
+ _02_/VGND PHY_1/VPWR sky130_fd_sc_hd__diode_2
XANTENNA_mem_bottom_ipin_2.sc_dff_compact_5_.sky130_fd_sc_hd__dfrbp_1_CLK clkbuf_1_0_0_prog_clk/X
+ _17_/VGND _20_/VPWR sky130_fd_sc_hd__diode_2
XFILLER_16_27 _13_/VGND _13_/VPWR sky130_fd_sc_hd__decap_4
XFILLER_7_123 PHY_15/VGND PHY_17/VPWR sky130_fd_sc_hd__decap_12
Xmem_bottom_ipin_0.sc_dff_compact_5_.sky130_fd_sc_hd__dfrbp_1 mem_bottom_ipin_0.sc_dff_compact_4_.sky130_fd_sc_hd__dfrbp_1/Q
+ mem_bottom_ipin_0.sc_dff_compact_5_.sky130_fd_sc_hd__dfrbp_1/Q mem_bottom_ipin_0.sc_dff_compact_5_.sky130_fd_sc_hd__dfrbp_1/Q_N
+ pReset clkbuf_1_0_0_prog_clk/X _01_/VGND _02_/VPWR sky130_fd_sc_hd__dfrbp_1
XFILLER_1_118 _02_/VGND _02_/VPWR sky130_fd_sc_hd__decap_4
XANTENNA_mem_top_ipin_0.sc_dff_compact_1_.sky130_fd_sc_hd__dfrbp_1_CLK clkbuf_1_0_0_prog_clk/X
+ _17_/VGND _20_/VPWR sky130_fd_sc_hd__diode_2
XFILLER_5_62 PHY_9/VGND PHY_13/VPWR sky130_fd_sc_hd__decap_8
XFILLER_14_93 _17_/VGND _20_/VPWR sky130_fd_sc_hd__decap_12
XFILLER_19_27 _11_/VGND _06_/VPWR sky130_fd_sc_hd__decap_12
XFILLER_10_29 PHY_23/VGND PHY_21/VPWR sky130_fd_sc_hd__fill_2
XPHY_92 _07_/VGND _08_/VPWR sky130_fd_sc_hd__tapvpwrvgnd_1
XPHY_81 _17_/VGND _13_/VPWR sky130_fd_sc_hd__tapvpwrvgnd_1
XPHY_70 PHY_23/VGND PHY_21/VPWR sky130_fd_sc_hd__tapvpwrvgnd_1
XFILLER_21_28 _07_/VGND _08_/VPWR sky130_fd_sc_hd__decap_4
XANTENNA_mem_bottom_ipin_2.sc_dff_compact_1_.sky130_fd_sc_hd__dfrbp_1_D mem_bottom_ipin_2.sc_dff_compact_1_.sky130_fd_sc_hd__dfrbp_1/D
+ PHY_15/VGND PHY_13/VPWR sky130_fd_sc_hd__diode_2
XFILLER_11_50 PHY_23/VGND PHY_25/VPWR sky130_fd_sc_hd__decap_8
XFILLER_22_93 _09_/VGND _08_/VPWR sky130_fd_sc_hd__decap_12
XFILLER_22_60 _09_/VGND _08_/VPWR sky130_fd_sc_hd__decap_12
XFILLER_7_113 PHY_15/VGND PHY_17/VPWR sky130_fd_sc_hd__fill_2
XFILLER_7_135 PHY_15/VGND PHY_17/VPWR sky130_fd_sc_hd__decap_4
XFILLER_8_40 PHY_19/VGND PHY_17/VPWR sky130_fd_sc_hd__decap_12
XFILLER_4_105 PHY_9/VGND _01_/VPWR sky130_fd_sc_hd__decap_3
XFILLER_12_3 PHY_27/VGND PHY_25/VPWR sky130_fd_sc_hd__decap_12