* NGSPICE file created from cbx_1__2_.ext - technology: sky130A

* Black-box entry subcircuit for sky130_fd_sc_hd__decap_12 abstract view
.subckt sky130_fd_sc_hd__decap_12 VGND VPWR
.ends

* Black-box entry subcircuit for sky130_fd_sc_hd__dfrbp_1 abstract view
.subckt sky130_fd_sc_hd__dfrbp_1 D Q Q_N RESET_B CLK VGND VPWR
.ends

* Black-box entry subcircuit for sky130_fd_sc_hd__fill_2 abstract view
.subckt sky130_fd_sc_hd__fill_2 VGND VPWR
.ends

* Black-box entry subcircuit for sky130_fd_sc_hd__fill_1 abstract view
.subckt sky130_fd_sc_hd__fill_1 VGND VPWR
.ends

* Black-box entry subcircuit for sky130_fd_sc_hd__diode_2 abstract view
.subckt sky130_fd_sc_hd__diode_2 DIODE VGND VPWR
.ends

* Black-box entry subcircuit for sky130_fd_sc_hd__clkbuf_1 abstract view
.subckt sky130_fd_sc_hd__clkbuf_1 A X VGND VPWR
.ends

* Black-box entry subcircuit for sky130_fd_sc_hd__decap_3 abstract view
.subckt sky130_fd_sc_hd__decap_3 VGND VPWR
.ends

* Black-box entry subcircuit for sky130_fd_sc_hd__decap_6 abstract view
.subckt sky130_fd_sc_hd__decap_6 VGND VPWR
.ends

* Black-box entry subcircuit for sky130_fd_sc_hd__decap_8 abstract view
.subckt sky130_fd_sc_hd__decap_8 VGND VPWR
.ends

* Black-box entry subcircuit for sky130_fd_sc_hd__tapvpwrvgnd_1 abstract view
.subckt sky130_fd_sc_hd__tapvpwrvgnd_1 VGND VPWR
.ends

* Black-box entry subcircuit for sky130_fd_sc_hd__decap_4 abstract view
.subckt sky130_fd_sc_hd__decap_4 VGND VPWR
.ends

* Black-box entry subcircuit for sky130_fd_sc_hd__buf_2 abstract view
.subckt sky130_fd_sc_hd__buf_2 A X VGND VPWR
.ends

* Black-box entry subcircuit for sky130_fd_sc_hd__conb_1 abstract view
.subckt sky130_fd_sc_hd__conb_1 HI LO VGND VPWR
.ends

* Black-box entry subcircuit for sky130_fd_sc_hd__clkbuf_16 abstract view
.subckt sky130_fd_sc_hd__clkbuf_16 A X VGND VPWR
.ends

.subckt cbx_1__2_ chanx_out_8_ top_grid_pin_0_ pReset chanx_out_16_ top_grid_pin_12_
+ chanx_in_5_ chanx_in_1_ top_grid_pin_8_ chanx_out_10_ chanx_in_10_ chanx_out_3_
+ prog_clk bottom_grid_pin_8_ ccff_tail top_grid_pin_14_ chanx_out_0_ chanx_out_13_
+ chanx_out_12_ chanx_out_9_ chanx_in_16_ chanx_out_15_ top_grid_pin_2_ chanx_in_4_
+ chanx_out_17_ top_grid_pin_10_ chanx_in_13_ top_grid_pin_6_ bottom_grid_pin_0_ chanx_in_8_
+ ccff_head chanx_in_9_ chanx_out_1_ chanx_in_6_ chanx_in_12_ chanx_out_11_ chanx_in_15_
+ chanx_in_17_ bottom_grid_pin_4_ chanx_in_3_ chanx_in_7_ chanx_in_11_ chanx_out_14_
+ chanx_out_2_ chanx_in_0_ chanx_out_5_ chanx_out_6_ top_grid_pin_4_ chanx_in_2_ chanx_in_14_
+ chanx_out_7_ chanx_out_4_
XFILLER_22_166 _16_/VGND PHY_45/VPWR sky130_fd_sc_hd__decap_12
Xmem_top_ipin_0.sc_dff_compact_4_.sky130_fd_sc_hd__dfrbp_1 mem_top_ipin_0.sc_dff_compact_3_.sky130_fd_sc_hd__dfrbp_1/Q
+ mem_top_ipin_0.sc_dff_compact_4_.sky130_fd_sc_hd__dfrbp_1/Q mem_top_ipin_0.sc_dff_compact_4_.sky130_fd_sc_hd__dfrbp_1/Q_N
+ pReset clkbuf_3_3_0_prog_clk/X _18_/VGND _18_/VPWR sky130_fd_sc_hd__dfrbp_1
Xmem_bottom_ipin_2.sc_dff_compact_5_.sky130_fd_sc_hd__dfrbp_1 mem_bottom_ipin_2.sc_dff_compact_4_.sky130_fd_sc_hd__dfrbp_1/Q
+ mem_bottom_ipin_2.sc_dff_compact_5_.sky130_fd_sc_hd__dfrbp_1/Q mem_bottom_ipin_2.sc_dff_compact_5_.sky130_fd_sc_hd__dfrbp_1/Q_N
+ pReset clkbuf_3_4_0_prog_clk/X PHY_93/VGND _27_/VPWR sky130_fd_sc_hd__dfrbp_1
XFILLER_12_98 _12_/VGND _12_/VPWR sky130_fd_sc_hd__decap_12
XFILLER_12_32 _12_/VGND _12_/VPWR sky130_fd_sc_hd__fill_2
XFILLER_5_184 _19_/VGND PHY_13/VPWR sky130_fd_sc_hd__decap_12
XFILLER_23_42 _16_/VGND _20_/VPWR sky130_fd_sc_hd__decap_12
Xmem_bottom_ipin_0.sc_dff_compact_0_.sky130_fd_sc_hd__dfrbp_1 ccff_head mem_bottom_ipin_0.sc_dff_compact_0_.sky130_fd_sc_hd__dfrbp_1/Q
+ mem_bottom_ipin_0.sc_dff_compact_0_.sky130_fd_sc_hd__dfrbp_1/Q_N pReset clkbuf_3_2_0_prog_clk/X
+ _16_/VGND _20_/VPWR sky130_fd_sc_hd__dfrbp_1
XFILLER_2_154 _04_/VGND _04_/VPWR sky130_fd_sc_hd__fill_2
XFILLER_9_11 _27_/VGND PHY_21/VPWR sky130_fd_sc_hd__fill_1
XANTENNA_clkbuf_2_1_0_prog_clk_A clkbuf_2_1_0_prog_clk/A _16_/VGND PHY_45/VPWR sky130_fd_sc_hd__diode_2
Xclkbuf_3_4_0_prog_clk clkbuf_2_2_0_prog_clk/X clkbuf_3_4_0_prog_clk/X PHY_23/VGND
+ PHY_21/VPWR sky130_fd_sc_hd__clkbuf_1
XANTENNA_mem_top_ipin_0.sc_dff_compact_2_.sky130_fd_sc_hd__dfrbp_1_D mem_top_ipin_0.sc_dff_compact_1_.sky130_fd_sc_hd__dfrbp_1/Q
+ _18_/VGND _18_/VPWR sky130_fd_sc_hd__diode_2
XFILLER_22_7 _16_/VGND PHY_45/VPWR sky130_fd_sc_hd__fill_2
XFILLER_18_97 PHY_39/VGND PHY_37/VPWR sky130_fd_sc_hd__decap_12
XANTENNA_mem_bottom_ipin_6.sc_dff_compact_4_.sky130_fd_sc_hd__dfrbp_1_D mem_bottom_ipin_6.sc_dff_compact_3_.sky130_fd_sc_hd__dfrbp_1/Q
+ _14_/VGND PHY_37/VPWR sky130_fd_sc_hd__diode_2
XFILLER_29_52 _08_/VGND _07_/VPWR sky130_fd_sc_hd__fill_1
XFILLER_28_150 _08_/VGND _18_/VPWR sky130_fd_sc_hd__decap_3
XFILLER_20_32 _22_/VGND _22_/VPWR sky130_fd_sc_hd__decap_12
XANTENNA_mem_top_ipin_0.sc_dff_compact_5_.sky130_fd_sc_hd__dfrbp_1_CLK clkbuf_3_3_0_prog_clk/X
+ _08_/VGND _07_/VPWR sky130_fd_sc_hd__diode_2
XFILLER_13_3 _12_/VGND PHY_26/VPWR sky130_fd_sc_hd__decap_6
XFILLER_6_23 PHY_93/VGND PHY_13/VPWR sky130_fd_sc_hd__fill_1
XFILLER_31_53 _01_/VGND _09_/VPWR sky130_fd_sc_hd__decap_8
XFILLER_25_175 _20_/VGND PHY_53/VPWR sky130_fd_sc_hd__decap_8
XFILLER_25_120 _20_/VGND PHY_53/VPWR sky130_fd_sc_hd__fill_2
XFILLER_15_87 PHY_31/VGND _14_/VPWR sky130_fd_sc_hd__decap_12
XPHY_170 _09_/VGND PHY_66/VPWR sky130_fd_sc_hd__tapvpwrvgnd_1
XFILLER_31_123 _01_/VGND _09_/VPWR sky130_fd_sc_hd__decap_12
XFILLER_31_112 _01_/VGND _09_/VPWR sky130_fd_sc_hd__fill_2
XFILLER_22_178 _16_/VGND PHY_45/VPWR sky130_fd_sc_hd__decap_12
XANTENNA_mem_bottom_ipin_7.sc_dff_compact_2_.sky130_fd_sc_hd__dfrbp_1_D mem_bottom_ipin_7.sc_dff_compact_2_.sky130_fd_sc_hd__dfrbp_1/D
+ _20_/VGND _20_/VPWR sky130_fd_sc_hd__diode_2
XFILLER_13_123 _12_/VGND PHY_26/VPWR sky130_fd_sc_hd__fill_2
XFILLER_13_101 _12_/VGND PHY_26/VPWR sky130_fd_sc_hd__fill_2
XFILLER_9_127 _27_/VGND PHY_21/VPWR sky130_fd_sc_hd__fill_2
XANTENNA_mem_top_ipin_1.sc_dff_compact_0_.sky130_fd_sc_hd__dfrbp_1_D mem_top_ipin_1.sc_dff_compact_0_.sky130_fd_sc_hd__dfrbp_1/D
+ _08_/VGND _07_/VPWR sky130_fd_sc_hd__diode_2
XFILLER_12_11 _12_/VGND _12_/VPWR sky130_fd_sc_hd__fill_1
XFILLER_10_115 PHY_23/VGND PHY_21/VPWR sky130_fd_sc_hd__fill_2
XANTENNA_mem_top_ipin_0.sc_dff_compact_5_.sky130_fd_sc_hd__dfrbp_1_D mem_top_ipin_0.sc_dff_compact_4_.sky130_fd_sc_hd__dfrbp_1/Q
+ _01_/VGND _07_/VPWR sky130_fd_sc_hd__diode_2
XFILLER_5_196 _19_/VGND PHY_13/VPWR sky130_fd_sc_hd__decap_6
XFILLER_23_54 _16_/VGND _20_/VPWR sky130_fd_sc_hd__decap_6
XANTENNA_mem_bottom_ipin_1.sc_dff_compact_1_.sky130_fd_sc_hd__dfrbp_1_RESET_B pReset
+ _12_/VGND PHY_26/VPWR sky130_fd_sc_hd__diode_2
XANTENNA_mem_bottom_ipin_1.sc_dff_compact_0_.sky130_fd_sc_hd__dfrbp_1_CLK clkbuf_3_0_0_prog_clk/X
+ PHY_31/VGND _14_/VPWR sky130_fd_sc_hd__diode_2
XFILLER_18_32 PHY_39/VGND PHY_37/VPWR sky130_fd_sc_hd__decap_12
XFILLER_18_21 PHY_39/VGND PHY_37/VPWR sky130_fd_sc_hd__fill_1
XANTENNA_mem_bottom_ipin_3.sc_dff_compact_2_.sky130_fd_sc_hd__dfrbp_1_RESET_B pReset
+ _03_/VGND _04_/VPWR sky130_fd_sc_hd__diode_2
XANTENNA_mem_bottom_ipin_2.sc_dff_compact_1_.sky130_fd_sc_hd__dfrbp_1_CLK clkbuf_3_0_0_prog_clk/X
+ PHY_93/VGND PHY_13/VPWR sky130_fd_sc_hd__diode_2
XANTENNA_mem_bottom_ipin_5.sc_dff_compact_3_.sky130_fd_sc_hd__dfrbp_1_RESET_B pReset
+ _14_/VGND PHY_37/VPWR sky130_fd_sc_hd__diode_2
XANTENNA_mem_bottom_ipin_4.sc_dff_compact_3_.sky130_fd_sc_hd__dfrbp_1_CLK clkbuf_3_5_0_prog_clk/X
+ _12_/VGND PHY_26/VPWR sky130_fd_sc_hd__diode_2
XANTENNA_mem_bottom_ipin_3.sc_dff_compact_2_.sky130_fd_sc_hd__dfrbp_1_CLK clkbuf_3_4_0_prog_clk/X
+ _03_/VGND _04_/VPWR sky130_fd_sc_hd__diode_2
XANTENNA_mem_bottom_ipin_5.sc_dff_compact_4_.sky130_fd_sc_hd__dfrbp_1_CLK clkbuf_3_3_0_prog_clk/X
+ PHY_39/VGND _22_/VPWR sky130_fd_sc_hd__diode_2
XFILLER_20_44 _22_/VGND _22_/VPWR sky130_fd_sc_hd__decap_12
XFILLER_1_90 _03_/VGND _04_/VPWR sky130_fd_sc_hd__decap_8
XANTENNA_mem_bottom_ipin_7.sc_dff_compact_5_.sky130_fd_sc_hd__dfrbp_1_D mem_bottom_ipin_7.sc_dff_compact_4_.sky130_fd_sc_hd__dfrbp_1/Q
+ _01_/VGND _07_/VPWR sky130_fd_sc_hd__diode_2
XANTENNA_mem_bottom_ipin_7.sc_dff_compact_4_.sky130_fd_sc_hd__dfrbp_1_RESET_B pReset
+ _08_/VGND _18_/VPWR sky130_fd_sc_hd__diode_2
XFILLER_19_184 PHY_39/VGND _22_/VPWR sky130_fd_sc_hd__decap_12
XANTENNA_mem_bottom_ipin_6.sc_dff_compact_5_.sky130_fd_sc_hd__dfrbp_1_CLK clkbuf_3_7_0_prog_clk/X
+ PHY_39/VGND _22_/VPWR sky130_fd_sc_hd__diode_2
XFILLER_25_110 _20_/VGND PHY_53/VPWR sky130_fd_sc_hd__decap_4
XFILLER_15_55 PHY_31/VGND _14_/VPWR sky130_fd_sc_hd__fill_2
XFILLER_15_11 PHY_31/VGND _14_/VPWR sky130_fd_sc_hd__fill_2
XPHY_171 _09_/VGND PHY_66/VPWR sky130_fd_sc_hd__tapvpwrvgnd_1
XFILLER_31_135 _01_/VGND _09_/VPWR sky130_fd_sc_hd__decap_12
XFILLER_31_98 _01_/VGND _09_/VPWR sky130_fd_sc_hd__decap_12
XPHY_160 _08_/VGND _07_/VPWR sky130_fd_sc_hd__tapvpwrvgnd_1
XFILLER_16_154 _14_/VGND _14_/VPWR sky130_fd_sc_hd__decap_12
XFILLER_15_99 PHY_31/VGND _14_/VPWR sky130_fd_sc_hd__decap_12
XFILLER_30_190 _01_/VGND _07_/VPWR sky130_fd_sc_hd__decap_12
Xmem_bottom_ipin_7.sc_dff_compact_2_.sky130_fd_sc_hd__dfrbp_1 mem_bottom_ipin_7.sc_dff_compact_2_.sky130_fd_sc_hd__dfrbp_1/D
+ mem_bottom_ipin_7.sc_dff_compact_2_.sky130_fd_sc_hd__dfrbp_1/Q mem_bottom_ipin_7.sc_dff_compact_2_.sky130_fd_sc_hd__dfrbp_1/Q_N
+ pReset clkbuf_3_7_0_prog_clk/X _20_/VGND PHY_53/VPWR sky130_fd_sc_hd__dfrbp_1
XFILLER_22_102 _16_/VGND PHY_45/VPWR sky130_fd_sc_hd__decap_3
XFILLER_26_32 _18_/VGND PHY_53/VPWR sky130_fd_sc_hd__decap_12
XFILLER_26_21 _18_/VGND PHY_53/VPWR sky130_fd_sc_hd__decap_8
XFILLER_13_113 _12_/VGND PHY_26/VPWR sky130_fd_sc_hd__fill_1
Xmem_bottom_ipin_4.sc_dff_compact_3_.sky130_fd_sc_hd__dfrbp_1 mem_bottom_ipin_4.sc_dff_compact_3_.sky130_fd_sc_hd__dfrbp_1/D
+ mem_bottom_ipin_4.sc_dff_compact_3_.sky130_fd_sc_hd__dfrbp_1/Q mem_bottom_ipin_4.sc_dff_compact_3_.sky130_fd_sc_hd__dfrbp_1/Q_N
+ pReset clkbuf_3_5_0_prog_clk/X _12_/VGND PHY_26/VPWR sky130_fd_sc_hd__dfrbp_1
XFILLER_12_190 _12_/VGND _12_/VPWR sky130_fd_sc_hd__decap_12
XFILLER_3_47 _04_/VGND _19_/VPWR sky130_fd_sc_hd__fill_1
XFILLER_3_58 _04_/VGND _19_/VPWR sky130_fd_sc_hd__decap_3
XFILLER_12_56 _12_/VGND _12_/VPWR sky130_fd_sc_hd__fill_1
XFILLER_5_131 _19_/VGND PHY_13/VPWR sky130_fd_sc_hd__decap_12
Xmem_bottom_ipin_1.sc_dff_compact_4_.sky130_fd_sc_hd__dfrbp_1 mem_bottom_ipin_1.sc_dff_compact_3_.sky130_fd_sc_hd__dfrbp_1/Q
+ mem_bottom_ipin_1.sc_dff_compact_4_.sky130_fd_sc_hd__dfrbp_1/Q mem_bottom_ipin_1.sc_dff_compact_4_.sky130_fd_sc_hd__dfrbp_1/Q_N
+ pReset clkbuf_3_0_0_prog_clk/X _27_/VGND PHY_21/VPWR sky130_fd_sc_hd__dfrbp_1
XANTENNA_mem_top_ipin_2.sc_dff_compact_1_.sky130_fd_sc_hd__dfrbp_1_D mem_top_ipin_2.sc_dff_compact_1_.sky130_fd_sc_hd__dfrbp_1/D
+ _09_/VGND _09_/VPWR sky130_fd_sc_hd__diode_2
XFILLER_2_145 _04_/VGND _04_/VPWR sky130_fd_sc_hd__decap_8
XFILLER_0_15 _03_/VGND PHY_0/VPWR sky130_fd_sc_hd__decap_12
XFILLER_3_3 _04_/VGND _19_/VPWR sky130_fd_sc_hd__decap_12
XFILLER_18_44 PHY_39/VGND PHY_37/VPWR sky130_fd_sc_hd__decap_12
XFILLER_29_108 _08_/VGND _07_/VPWR sky130_fd_sc_hd__decap_6
XFILLER_29_10 _08_/VGND _07_/VPWR sky130_fd_sc_hd__fill_2
XFILLER_20_56 _22_/VGND _22_/VPWR sky130_fd_sc_hd__fill_1
XFILLER_20_12 _22_/VGND _22_/VPWR sky130_fd_sc_hd__decap_8
XANTENNA_clkbuf_1_0_0_prog_clk_A clkbuf_0_prog_clk/X _14_/VGND PHY_37/VPWR sky130_fd_sc_hd__diode_2
XFILLER_29_87 _08_/VGND _07_/VPWR sky130_fd_sc_hd__decap_6
XFILLER_28_130 _08_/VGND _18_/VPWR sky130_fd_sc_hd__decap_12
XFILLER_6_36 PHY_93/VGND PHY_13/VPWR sky130_fd_sc_hd__decap_6
XFILLER_19_196 PHY_39/VGND _22_/VPWR sky130_fd_sc_hd__decap_6
XFILLER_16_166 _14_/VGND _14_/VPWR sky130_fd_sc_hd__decap_12
XPHY_172 _09_/VGND PHY_66/VPWR sky130_fd_sc_hd__tapvpwrvgnd_1
XFILLER_31_147 _01_/VGND _09_/VPWR sky130_fd_sc_hd__decap_12
XPHY_161 _01_/VGND _07_/VPWR sky130_fd_sc_hd__tapvpwrvgnd_1
XPHY_150 _18_/VGND PHY_53/VPWR sky130_fd_sc_hd__tapvpwrvgnd_1
XFILLER_22_136 _16_/VGND PHY_45/VPWR sky130_fd_sc_hd__decap_12
Xclkbuf_2_1_0_prog_clk clkbuf_2_1_0_prog_clk/A clkbuf_3_3_0_prog_clk/A _16_/VGND PHY_45/VPWR
+ sky130_fd_sc_hd__clkbuf_1
XFILLER_26_66 _18_/VGND PHY_53/VPWR sky130_fd_sc_hd__decap_12
XFILLER_26_44 _18_/VGND PHY_53/VPWR sky130_fd_sc_hd__decap_12
XFILLER_21_180 _22_/VGND PHY_45/VPWR sky130_fd_sc_hd__decap_3
XFILLER_3_15 _04_/VGND _19_/VPWR sky130_fd_sc_hd__decap_12
XANTENNA_mem_bottom_ipin_0.sc_dff_compact_1_.sky130_fd_sc_hd__dfrbp_1_RESET_B pReset
+ _22_/VGND PHY_45/VPWR sky130_fd_sc_hd__diode_2
XFILLER_5_143 _19_/VGND PHY_13/VPWR sky130_fd_sc_hd__decap_12
XFILLER_4_91 _19_/VGND _19_/VPWR sky130_fd_sc_hd__fill_1
XANTENNA_mem_bottom_ipin_2.sc_dff_compact_2_.sky130_fd_sc_hd__dfrbp_1_RESET_B pReset
+ PHY_93/VGND PHY_13/VPWR sky130_fd_sc_hd__diode_2
XFILLER_23_67 _16_/VGND _20_/VPWR sky130_fd_sc_hd__decap_3
XFILLER_23_34 _16_/VGND _20_/VPWR sky130_fd_sc_hd__fill_2
XANTENNA_mem_bottom_ipin_4.sc_dff_compact_3_.sky130_fd_sc_hd__dfrbp_1_RESET_B pReset
+ _12_/VGND PHY_26/VPWR sky130_fd_sc_hd__diode_2
XANTENNA__12__A chanx_in_10_ PHY_23/VGND _12_/VPWR sky130_fd_sc_hd__diode_2
XFILLER_2_124 _04_/VGND _04_/VPWR sky130_fd_sc_hd__decap_12
XFILLER_0_27 _03_/VGND PHY_0/VPWR sky130_fd_sc_hd__decap_4
XFILLER_29_3 _08_/VGND _07_/VPWR sky130_fd_sc_hd__decap_4
XFILLER_9_14 _27_/VGND PHY_21/VPWR sky130_fd_sc_hd__fill_2
XFILLER_9_47 _27_/VGND PHY_21/VPWR sky130_fd_sc_hd__decap_12
XFILLER_20_201 _22_/VGND _22_/VPWR sky130_fd_sc_hd__fill_1
XFILLER_18_56 PHY_39/VGND PHY_37/VPWR sky130_fd_sc_hd__decap_3
XANTENNA_mem_bottom_ipin_6.sc_dff_compact_4_.sky130_fd_sc_hd__dfrbp_1_RESET_B pReset
+ _14_/VGND PHY_37/VPWR sky130_fd_sc_hd__diode_2
XFILLER_20_24 _22_/VGND _22_/VPWR sky130_fd_sc_hd__decap_6
XFILLER_29_55 _08_/VGND _07_/VPWR sky130_fd_sc_hd__fill_2
XFILLER_29_44 _08_/VGND _07_/VPWR sky130_fd_sc_hd__fill_2
XFILLER_28_142 _08_/VGND _18_/VPWR sky130_fd_sc_hd__decap_8
Xclkbuf_3_3_0_prog_clk clkbuf_3_3_0_prog_clk/A clkbuf_3_3_0_prog_clk/X _16_/VGND _20_/VPWR
+ sky130_fd_sc_hd__clkbuf_1
XFILLER_6_15 PHY_93/VGND PHY_13/VPWR sky130_fd_sc_hd__decap_8
XFILLER_6_26 PHY_93/VGND PHY_13/VPWR sky130_fd_sc_hd__decap_4
XFILLER_6_48 PHY_93/VGND PHY_13/VPWR sky130_fd_sc_hd__decap_12
XFILLER_19_175 PHY_39/VGND _22_/VPWR sky130_fd_sc_hd__fill_2
XFILLER_19_131 PHY_39/VGND _22_/VPWR sky130_fd_sc_hd__decap_12
XFILLER_19_120 PHY_39/VGND _22_/VPWR sky130_fd_sc_hd__fill_2
XFILLER_10_90 PHY_23/VGND PHY_21/VPWR sky130_fd_sc_hd__fill_2
XFILLER_25_123 _20_/VGND PHY_53/VPWR sky130_fd_sc_hd__decap_4
XANTENNA__20__A chanx_in_1_ _16_/VGND _20_/VPWR sky130_fd_sc_hd__diode_2
XPHY_173 _09_/VGND PHY_66/VPWR sky130_fd_sc_hd__tapvpwrvgnd_1
XFILLER_31_159 _01_/VGND _09_/VPWR sky130_fd_sc_hd__decap_12
XPHY_162 _01_/VGND _07_/VPWR sky130_fd_sc_hd__tapvpwrvgnd_1
XPHY_151 _18_/VGND PHY_53/VPWR sky130_fd_sc_hd__tapvpwrvgnd_1
XPHY_140 _16_/VGND _20_/VPWR sky130_fd_sc_hd__tapvpwrvgnd_1
XFILLER_16_178 _14_/VGND _14_/VPWR sky130_fd_sc_hd__fill_2
XFILLER_11_3 PHY_23/VGND _12_/VPWR sky130_fd_sc_hd__decap_8
XFILLER_26_78 _18_/VGND PHY_53/VPWR sky130_fd_sc_hd__decap_12
XFILLER_26_56 _18_/VGND PHY_53/VPWR sky130_fd_sc_hd__decap_8
XFILLER_22_148 _16_/VGND PHY_45/VPWR sky130_fd_sc_hd__decap_4
XFILLER_13_148 _12_/VGND PHY_26/VPWR sky130_fd_sc_hd__decap_12
XFILLER_3_27 _04_/VGND _19_/VPWR sky130_fd_sc_hd__decap_12
XANTENNA__15__A chanx_in_13_ _04_/VGND _19_/VPWR sky130_fd_sc_hd__diode_2
Xmem_bottom_ipin_6.sc_dff_compact_1_.sky130_fd_sc_hd__dfrbp_1 mem_bottom_ipin_6.sc_dff_compact_0_.sky130_fd_sc_hd__dfrbp_1/Q
+ mem_bottom_ipin_6.sc_dff_compact_1_.sky130_fd_sc_hd__dfrbp_1/Q mem_bottom_ipin_6.sc_dff_compact_1_.sky130_fd_sc_hd__dfrbp_1/Q_N
+ pReset clkbuf_3_3_0_prog_clk/X _16_/VGND PHY_45/VPWR sky130_fd_sc_hd__dfrbp_1
XFILLER_12_36 _12_/VGND _12_/VPWR sky130_fd_sc_hd__fill_2
XFILLER_12_25 _12_/VGND _12_/VPWR sky130_fd_sc_hd__fill_2
XFILLER_8_152 _27_/VGND _27_/VPWR sky130_fd_sc_hd__fill_1
XFILLER_5_155 _19_/VGND PHY_13/VPWR sky130_fd_sc_hd__decap_12
Xmem_top_ipin_1.sc_dff_compact_1_.sky130_fd_sc_hd__dfrbp_1 mem_top_ipin_1.sc_dff_compact_0_.sky130_fd_sc_hd__dfrbp_1/Q
+ mem_top_ipin_1.sc_dff_compact_1_.sky130_fd_sc_hd__dfrbp_1/Q mem_top_ipin_1.sc_dff_compact_1_.sky130_fd_sc_hd__dfrbp_1/Q_N
+ pReset clkbuf_3_2_0_prog_clk/X _08_/VGND _18_/VPWR sky130_fd_sc_hd__dfrbp_1
XFILLER_2_136 _04_/VGND _04_/VPWR sky130_fd_sc_hd__decap_4
Xmem_bottom_ipin_3.sc_dff_compact_2_.sky130_fd_sc_hd__dfrbp_1 mem_bottom_ipin_3.sc_dff_compact_1_.sky130_fd_sc_hd__dfrbp_1/Q
+ mem_bottom_ipin_3.sc_dff_compact_2_.sky130_fd_sc_hd__dfrbp_1/Q mem_bottom_ipin_3.sc_dff_compact_2_.sky130_fd_sc_hd__dfrbp_1/Q_N
+ pReset clkbuf_3_4_0_prog_clk/X _04_/VGND _04_/VPWR sky130_fd_sc_hd__dfrbp_1
XFILLER_9_59 _27_/VGND PHY_21/VPWR sky130_fd_sc_hd__fill_2
Xmem_bottom_ipin_0.sc_dff_compact_3_.sky130_fd_sc_hd__dfrbp_1 mem_bottom_ipin_0.sc_dff_compact_2_.sky130_fd_sc_hd__dfrbp_1/Q
+ mem_bottom_ipin_0.sc_dff_compact_3_.sky130_fd_sc_hd__dfrbp_1/Q mem_bottom_ipin_0.sc_dff_compact_3_.sky130_fd_sc_hd__dfrbp_1/Q_N
+ pReset clkbuf_3_2_0_prog_clk/X _20_/VGND _20_/VPWR sky130_fd_sc_hd__dfrbp_1
XFILLER_18_24 PHY_39/VGND PHY_37/VPWR sky130_fd_sc_hd__decap_6
XANTENNA__23__A chanx_in_4_ _04_/VGND _19_/VPWR sky130_fd_sc_hd__diode_2
X_28_ chanx_in_9_ chanx_out_9_ _04_/VGND _04_/VPWR sky130_fd_sc_hd__buf_2
XFILLER_28_154 _08_/VGND _18_/VPWR sky130_fd_sc_hd__decap_12
XANTENNA__18__A chanx_in_16_ _18_/VGND _18_/VPWR sky130_fd_sc_hd__diode_2
XFILLER_19_143 PHY_39/VGND _22_/VPWR sky130_fd_sc_hd__decap_12
XPHY_174 _09_/VGND PHY_66/VPWR sky130_fd_sc_hd__tapvpwrvgnd_1
XFILLER_31_116 _01_/VGND _09_/VPWR sky130_fd_sc_hd__fill_2
XPHY_163 _01_/VGND _07_/VPWR sky130_fd_sc_hd__tapvpwrvgnd_1
XPHY_152 _18_/VGND _18_/VPWR sky130_fd_sc_hd__tapvpwrvgnd_1
XPHY_141 _16_/VGND _20_/VPWR sky130_fd_sc_hd__tapvpwrvgnd_1
XPHY_130 PHY_39/VGND _22_/VPWR sky130_fd_sc_hd__tapvpwrvgnd_1
XFILLER_21_160 _22_/VGND PHY_45/VPWR sky130_fd_sc_hd__decap_12
XFILLER_13_116 _12_/VGND PHY_26/VPWR sky130_fd_sc_hd__fill_2
XFILLER_13_105 _12_/VGND PHY_26/VPWR sky130_fd_sc_hd__fill_2
XANTENNA_mem_bottom_ipin_1.sc_dff_compact_2_.sky130_fd_sc_hd__dfrbp_1_RESET_B pReset
+ _12_/VGND _12_/VPWR sky130_fd_sc_hd__diode_2
XFILLER_3_39 _04_/VGND _19_/VPWR sky130_fd_sc_hd__decap_8
XFILLER_12_59 _12_/VGND _12_/VPWR sky130_fd_sc_hd__fill_2
XFILLER_10_119 PHY_23/VGND PHY_21/VPWR sky130_fd_sc_hd__fill_2
XANTENNA__26__A chanx_in_7_ _03_/VGND _04_/VPWR sky130_fd_sc_hd__diode_2
XANTENNA_mem_bottom_ipin_3.sc_dff_compact_3_.sky130_fd_sc_hd__dfrbp_1_RESET_B pReset
+ _04_/VGND _19_/VPWR sky130_fd_sc_hd__diode_2
XANTENNA_mem_bottom_ipin_5.sc_dff_compact_4_.sky130_fd_sc_hd__dfrbp_1_RESET_B pReset
+ PHY_39/VGND _22_/VPWR sky130_fd_sc_hd__diode_2
XFILLER_5_112 _19_/VGND PHY_13/VPWR sky130_fd_sc_hd__decap_4
XFILLER_5_123 _19_/VGND PHY_13/VPWR sky130_fd_sc_hd__fill_2
XFILLER_5_167 _19_/VGND PHY_13/VPWR sky130_fd_sc_hd__decap_12
XFILLER_4_93 _19_/VGND _19_/VPWR sky130_fd_sc_hd__decap_12
XANTENNA_mem_bottom_ipin_7.sc_dff_compact_5_.sky130_fd_sc_hd__dfrbp_1_RESET_B pReset
+ _08_/VGND _07_/VPWR sky130_fd_sc_hd__diode_2
XANTENNA_mem_top_ipin_0.sc_dff_compact_4_.sky130_fd_sc_hd__dfrbp_1_CLK clkbuf_3_3_0_prog_clk/X
+ _18_/VGND _18_/VPWR sky130_fd_sc_hd__diode_2
XFILLER_1_181 _03_/VGND _04_/VPWR sky130_fd_sc_hd__fill_2
XANTENNA_clkbuf_3_3_0_prog_clk_A clkbuf_3_3_0_prog_clk/A _20_/VGND _20_/VPWR sky130_fd_sc_hd__diode_2
XFILLER_1_3 _03_/VGND _04_/VPWR sky130_fd_sc_hd__decap_12
X_27_ chanx_in_8_ chanx_out_8_ _27_/VGND _27_/VPWR sky130_fd_sc_hd__buf_2
XFILLER_29_35 _08_/VGND _07_/VPWR sky130_fd_sc_hd__decap_3
XFILLER_28_166 _08_/VGND _18_/VPWR sky130_fd_sc_hd__decap_12
XFILLER_20_59 _22_/VGND _22_/VPWR sky130_fd_sc_hd__fill_2
XANTENNA_mem_bottom_ipin_0.sc_dff_compact_0_.sky130_fd_sc_hd__dfrbp_1_D ccff_head
+ _20_/VGND _20_/VPWR sky130_fd_sc_hd__diode_2
XFILLER_19_155 PHY_39/VGND _22_/VPWR sky130_fd_sc_hd__decap_12
XFILLER_20_9 _22_/VGND _22_/VPWR sky130_fd_sc_hd__fill_1
XFILLER_33_180 _09_/VGND PHY_66/VPWR sky130_fd_sc_hd__decap_6
XFILLER_15_59 PHY_31/VGND _14_/VPWR sky130_fd_sc_hd__fill_2
XFILLER_15_15 PHY_31/VGND _14_/VPWR sky130_fd_sc_hd__fill_2
XPHY_175 _09_/VGND PHY_66/VPWR sky130_fd_sc_hd__tapvpwrvgnd_1
XPHY_164 _01_/VGND _09_/VPWR sky130_fd_sc_hd__tapvpwrvgnd_1
XPHY_153 _18_/VGND _18_/VPWR sky130_fd_sc_hd__tapvpwrvgnd_1
XPHY_142 _16_/VGND _20_/VPWR sky130_fd_sc_hd__tapvpwrvgnd_1
XPHY_131 _22_/VGND _22_/VPWR sky130_fd_sc_hd__tapvpwrvgnd_1
XPHY_120 _14_/VGND _14_/VPWR sky130_fd_sc_hd__tapvpwrvgnd_1
XFILLER_22_128 _16_/VGND PHY_45/VPWR sky130_fd_sc_hd__fill_2
XPHY_0 _03_/VGND PHY_0/VPWR sky130_fd_sc_hd__decap_3
Xmem_bottom_ipin_7.sc_dff_compact_5_.sky130_fd_sc_hd__dfrbp_1 mem_bottom_ipin_7.sc_dff_compact_4_.sky130_fd_sc_hd__dfrbp_1/Q
+ mem_top_ipin_0.sc_dff_compact_0_.sky130_fd_sc_hd__dfrbp_1/D mem_bottom_ipin_7.sc_dff_compact_5_.sky130_fd_sc_hd__dfrbp_1/Q_N
+ pReset clkbuf_3_7_0_prog_clk/X _08_/VGND _07_/VPWR sky130_fd_sc_hd__dfrbp_1
XFILLER_21_172 _22_/VGND PHY_45/VPWR sky130_fd_sc_hd__decap_8
XFILLER_16_80 _14_/VGND _14_/VPWR sky130_fd_sc_hd__decap_12
XFILLER_12_150 _12_/VGND _12_/VPWR sky130_fd_sc_hd__decap_3
XFILLER_8_154 _27_/VGND _27_/VPWR sky130_fd_sc_hd__decap_12
XFILLER_12_16 _12_/VGND _12_/VPWR sky130_fd_sc_hd__fill_2
XANTENNA_mem_bottom_ipin_2.sc_dff_compact_0_.sky130_fd_sc_hd__dfrbp_1_CLK clkbuf_3_0_0_prog_clk/X
+ PHY_93/VGND PHY_13/VPWR sky130_fd_sc_hd__diode_2
Xclkbuf_2_0_0_prog_clk clkbuf_2_1_0_prog_clk/A clkbuf_2_0_0_prog_clk/X _12_/VGND PHY_26/VPWR
+ sky130_fd_sc_hd__clkbuf_1
XANTENNA_mem_bottom_ipin_3.sc_dff_compact_1_.sky130_fd_sc_hd__dfrbp_1_CLK clkbuf_3_4_0_prog_clk/X
+ _04_/VGND _04_/VPWR sky130_fd_sc_hd__diode_2
XFILLER_5_179 _19_/VGND PHY_13/VPWR sky130_fd_sc_hd__decap_4
XANTENNA_mem_bottom_ipin_5.sc_dff_compact_3_.sky130_fd_sc_hd__dfrbp_1_CLK clkbuf_3_3_0_prog_clk/X
+ _14_/VGND _14_/VPWR sky130_fd_sc_hd__diode_2
XANTENNA_mem_bottom_ipin_4.sc_dff_compact_2_.sky130_fd_sc_hd__dfrbp_1_CLK clkbuf_3_5_0_prog_clk/X
+ PHY_23/VGND _12_/VPWR sky130_fd_sc_hd__diode_2
XFILLER_4_83 _19_/VGND _19_/VPWR sky130_fd_sc_hd__decap_8
XANTENNA_mem_bottom_ipin_6.sc_dff_compact_4_.sky130_fd_sc_hd__dfrbp_1_CLK clkbuf_3_7_0_prog_clk/X
+ _14_/VGND PHY_37/VPWR sky130_fd_sc_hd__diode_2
Xmem_bottom_ipin_5.sc_dff_compact_0_.sky130_fd_sc_hd__dfrbp_1 mem_bottom_ipin_4.sc_dff_compact_5_.sky130_fd_sc_hd__dfrbp_1/Q
+ mem_bottom_ipin_5.sc_dff_compact_1_.sky130_fd_sc_hd__dfrbp_1/D mem_bottom_ipin_5.sc_dff_compact_0_.sky130_fd_sc_hd__dfrbp_1/Q_N
+ pReset clkbuf_3_4_0_prog_clk/X PHY_23/VGND _12_/VPWR sky130_fd_sc_hd__dfrbp_1
XANTENNA_mem_bottom_ipin_7.sc_dff_compact_5_.sky130_fd_sc_hd__dfrbp_1_CLK clkbuf_3_7_0_prog_clk/X
+ _08_/VGND _07_/VPWR sky130_fd_sc_hd__diode_2
XANTENNA_mem_bottom_ipin_0.sc_dff_compact_3_.sky130_fd_sc_hd__dfrbp_1_D mem_bottom_ipin_0.sc_dff_compact_2_.sky130_fd_sc_hd__dfrbp_1/Q
+ _16_/VGND _20_/VPWR sky130_fd_sc_hd__diode_2
XFILLER_18_15 PHY_39/VGND PHY_37/VPWR sky130_fd_sc_hd__decap_6
Xmem_bottom_ipin_2.sc_dff_compact_1_.sky130_fd_sc_hd__dfrbp_1 mem_bottom_ipin_2.sc_dff_compact_1_.sky130_fd_sc_hd__dfrbp_1/D
+ mem_bottom_ipin_2.sc_dff_compact_2_.sky130_fd_sc_hd__dfrbp_1/D mem_bottom_ipin_2.sc_dff_compact_1_.sky130_fd_sc_hd__dfrbp_1/Q_N
+ pReset clkbuf_3_0_0_prog_clk/X PHY_93/VGND _27_/VPWR sky130_fd_sc_hd__dfrbp_1
Xmem_top_ipin_0.sc_dff_compact_0_.sky130_fd_sc_hd__dfrbp_1 mem_top_ipin_0.sc_dff_compact_0_.sky130_fd_sc_hd__dfrbp_1/D
+ mem_top_ipin_0.sc_dff_compact_0_.sky130_fd_sc_hd__dfrbp_1/Q mem_top_ipin_0.sc_dff_compact_0_.sky130_fd_sc_hd__dfrbp_1/Q_N
+ pReset clkbuf_3_7_0_prog_clk/X _09_/VGND _09_/VPWR sky130_fd_sc_hd__dfrbp_1
XFILLER_27_3 _18_/VGND _18_/VPWR sky130_fd_sc_hd__decap_12
XFILLER_24_80 _20_/VGND _20_/VPWR sky130_fd_sc_hd__decap_12
X_26_ chanx_in_7_ chanx_out_7_ _04_/VGND _04_/VPWR sky130_fd_sc_hd__buf_2
XFILLER_1_62 _03_/VGND _04_/VPWR sky130_fd_sc_hd__fill_2
XFILLER_1_51 _03_/VGND _04_/VPWR sky130_fd_sc_hd__decap_8
XFILLER_28_178 _08_/VGND _18_/VPWR sky130_fd_sc_hd__decap_12
XFILLER_19_167 PHY_39/VGND _22_/VPWR sky130_fd_sc_hd__decap_8
XFILLER_19_123 PHY_39/VGND _22_/VPWR sky130_fd_sc_hd__fill_2
XFILLER_10_93 PHY_23/VGND PHY_21/VPWR sky130_fd_sc_hd__fill_2
X_09_ _09_/HI top_grid_pin_2_ _09_/VGND _09_/VPWR sky130_fd_sc_hd__conb_1
XANTENNA_mem_bottom_ipin_0.sc_dff_compact_2_.sky130_fd_sc_hd__dfrbp_1_RESET_B pReset
+ _20_/VGND PHY_53/VPWR sky130_fd_sc_hd__diode_2
XPHY_165 _01_/VGND _09_/VPWR sky130_fd_sc_hd__tapvpwrvgnd_1
XFILLER_31_37 _01_/VGND _09_/VPWR sky130_fd_sc_hd__decap_12
XPHY_154 _18_/VGND _18_/VPWR sky130_fd_sc_hd__tapvpwrvgnd_1
XPHY_143 _20_/VGND _20_/VPWR sky130_fd_sc_hd__tapvpwrvgnd_1
XPHY_132 _22_/VGND _22_/VPWR sky130_fd_sc_hd__tapvpwrvgnd_1
XPHY_121 _14_/VGND _14_/VPWR sky130_fd_sc_hd__tapvpwrvgnd_1
XPHY_110 _12_/VGND PHY_26/VPWR sky130_fd_sc_hd__tapvpwrvgnd_1
XFILLER_30_151 _01_/VGND _07_/VPWR sky130_fd_sc_hd__fill_2
XANTENNA_mem_bottom_ipin_1.sc_dff_compact_1_.sky130_fd_sc_hd__dfrbp_1_D mem_bottom_ipin_1.sc_dff_compact_0_.sky130_fd_sc_hd__dfrbp_1/Q
+ _12_/VGND _12_/VPWR sky130_fd_sc_hd__diode_2
XPHY_1 _03_/VGND PHY_0/VPWR sky130_fd_sc_hd__decap_3
XANTENNA_mem_bottom_ipin_2.sc_dff_compact_3_.sky130_fd_sc_hd__dfrbp_1_RESET_B pReset
+ _04_/VGND _19_/VPWR sky130_fd_sc_hd__diode_2
XFILLER_26_15 _18_/VGND PHY_53/VPWR sky130_fd_sc_hd__decap_4
Xclkbuf_3_2_0_prog_clk clkbuf_3_3_0_prog_clk/A clkbuf_3_2_0_prog_clk/X _20_/VGND _20_/VPWR
+ sky130_fd_sc_hd__clkbuf_1
XFILLER_21_184 _22_/VGND PHY_45/VPWR sky130_fd_sc_hd__decap_12
XANTENNA_mem_bottom_ipin_4.sc_dff_compact_4_.sky130_fd_sc_hd__dfrbp_1_RESET_B pReset
+ _12_/VGND PHY_26/VPWR sky130_fd_sc_hd__diode_2
XFILLER_7_94 PHY_93/VGND _27_/VPWR sky130_fd_sc_hd__decap_12
XFILLER_8_144 _27_/VGND _27_/VPWR sky130_fd_sc_hd__decap_8
XFILLER_8_166 _27_/VGND _27_/VPWR sky130_fd_sc_hd__decap_12
XANTENNA_mem_bottom_ipin_6.sc_dff_compact_5_.sky130_fd_sc_hd__dfrbp_1_RESET_B pReset
+ PHY_39/VGND _22_/VPWR sky130_fd_sc_hd__diode_2
XFILLER_23_38 _16_/VGND _20_/VPWR sky130_fd_sc_hd__fill_2
XFILLER_9_18 _27_/VGND PHY_21/VPWR sky130_fd_sc_hd__fill_2
XFILLER_29_7 _08_/VGND _07_/VPWR sky130_fd_sc_hd__fill_1
XFILLER_13_93 _12_/VGND PHY_26/VPWR sky130_fd_sc_hd__fill_1
X_25_ chanx_in_6_ chanx_out_6_ _04_/VGND _19_/VPWR sky130_fd_sc_hd__buf_2
XANTENNA_mem_bottom_ipin_1.sc_dff_compact_4_.sky130_fd_sc_hd__dfrbp_1_D mem_bottom_ipin_1.sc_dff_compact_3_.sky130_fd_sc_hd__dfrbp_1/Q
+ _27_/VGND _27_/VPWR sky130_fd_sc_hd__diode_2
XFILLER_29_59 _08_/VGND _07_/VPWR sky130_fd_sc_hd__fill_2
XFILLER_29_48 _08_/VGND _07_/VPWR sky130_fd_sc_hd__decap_4
X_08_ _08_/HI top_grid_pin_14_ _08_/VGND _07_/VPWR sky130_fd_sc_hd__conb_1
XFILLER_27_190 _18_/VGND _18_/VPWR sky130_fd_sc_hd__fill_2
XFILLER_19_179 PHY_39/VGND _22_/VPWR sky130_fd_sc_hd__decap_4
XANTENNA_clkbuf_2_2_0_prog_clk_A clkbuf_2_3_0_prog_clk/A _12_/VGND PHY_26/VPWR sky130_fd_sc_hd__diode_2
XFILLER_31_49 _01_/VGND _09_/VPWR sky130_fd_sc_hd__fill_1
XFILLER_25_127 _20_/VGND PHY_53/VPWR sky130_fd_sc_hd__fill_1
XFILLER_25_116 _20_/VGND PHY_53/VPWR sky130_fd_sc_hd__fill_2
XFILLER_18_190 PHY_39/VGND PHY_37/VPWR sky130_fd_sc_hd__decap_12
XFILLER_16_105 _14_/VGND _14_/VPWR sky130_fd_sc_hd__decap_12
XPHY_100 _27_/VGND PHY_21/VPWR sky130_fd_sc_hd__tapvpwrvgnd_1
XPHY_166 _01_/VGND _09_/VPWR sky130_fd_sc_hd__tapvpwrvgnd_1
XPHY_155 _08_/VGND _18_/VPWR sky130_fd_sc_hd__tapvpwrvgnd_1
XPHY_144 _20_/VGND _20_/VPWR sky130_fd_sc_hd__tapvpwrvgnd_1
XPHY_133 _22_/VGND _22_/VPWR sky130_fd_sc_hd__tapvpwrvgnd_1
XPHY_122 _14_/VGND PHY_37/VPWR sky130_fd_sc_hd__tapvpwrvgnd_1
XFILLER_15_171 PHY_31/VGND _14_/VPWR sky130_fd_sc_hd__decap_12
XPHY_111 _12_/VGND PHY_26/VPWR sky130_fd_sc_hd__tapvpwrvgnd_1
XPHY_2 _03_/VGND _04_/VPWR sky130_fd_sc_hd__decap_3
XFILLER_21_196 _22_/VGND PHY_45/VPWR sky130_fd_sc_hd__decap_6
XFILLER_7_62 PHY_93/VGND _27_/VPWR sky130_fd_sc_hd__decap_4
XFILLER_16_93 _14_/VGND _14_/VPWR sky130_fd_sc_hd__decap_12
XFILLER_16_60 _14_/VGND _14_/VPWR sky130_fd_sc_hd__fill_2
XFILLER_8_178 _27_/VGND _27_/VPWR sky130_fd_sc_hd__decap_12
XFILLER_12_29 _12_/VGND _12_/VPWR sky130_fd_sc_hd__fill_2
XANTENNA_mem_bottom_ipin_2.sc_dff_compact_2_.sky130_fd_sc_hd__dfrbp_1_D mem_bottom_ipin_2.sc_dff_compact_2_.sky130_fd_sc_hd__dfrbp_1/D
+ PHY_93/VGND PHY_13/VPWR sky130_fd_sc_hd__diode_2
XFILLER_5_104 _19_/VGND PHY_13/VPWR sky130_fd_sc_hd__decap_6
Xmem_bottom_ipin_6.sc_dff_compact_4_.sky130_fd_sc_hd__dfrbp_1 mem_bottom_ipin_6.sc_dff_compact_3_.sky130_fd_sc_hd__dfrbp_1/Q
+ mem_bottom_ipin_6.sc_dff_compact_5_.sky130_fd_sc_hd__dfrbp_1/D mem_bottom_ipin_6.sc_dff_compact_4_.sky130_fd_sc_hd__dfrbp_1/Q_N
+ pReset clkbuf_3_7_0_prog_clk/X PHY_39/VGND PHY_37/VPWR sky130_fd_sc_hd__dfrbp_1
XFILLER_4_30 _19_/VGND _19_/VPWR sky130_fd_sc_hd__fill_1
XFILLER_23_28 _16_/VGND _20_/VPWR sky130_fd_sc_hd__decap_4
XFILLER_1_184 _03_/VGND _04_/VPWR sky130_fd_sc_hd__fill_2
XFILLER_1_151 _03_/VGND _04_/VPWR sky130_fd_sc_hd__decap_3
Xmem_bottom_ipin_3.sc_dff_compact_5_.sky130_fd_sc_hd__dfrbp_1 mem_bottom_ipin_3.sc_dff_compact_4_.sky130_fd_sc_hd__dfrbp_1/Q
+ mem_bottom_ipin_3.sc_dff_compact_5_.sky130_fd_sc_hd__dfrbp_1/Q mem_bottom_ipin_3.sc_dff_compact_5_.sky130_fd_sc_hd__dfrbp_1/Q_N
+ pReset clkbuf_3_5_0_prog_clk/X _27_/VGND _27_/VPWR sky130_fd_sc_hd__dfrbp_1
XFILLER_24_93 _20_/VGND _20_/VPWR sky130_fd_sc_hd__fill_2
X_24_ chanx_in_5_ chanx_out_5_ _04_/VGND _19_/VPWR sky130_fd_sc_hd__buf_2
XANTENNA_mem_bottom_ipin_1.sc_dff_compact_3_.sky130_fd_sc_hd__dfrbp_1_RESET_B pReset
+ PHY_23/VGND _12_/VPWR sky130_fd_sc_hd__diode_2
XFILLER_10_73 PHY_23/VGND PHY_21/VPWR sky130_fd_sc_hd__fill_2
XANTENNA_mem_bottom_ipin_3.sc_dff_compact_0_.sky130_fd_sc_hd__dfrbp_1_D mem_bottom_ipin_2.sc_dff_compact_5_.sky130_fd_sc_hd__dfrbp_1/Q
+ _19_/VGND _19_/VPWR sky130_fd_sc_hd__diode_2
XFILLER_32_3 _09_/VGND _09_/VPWR sky130_fd_sc_hd__fill_2
XFILLER_27_180 _18_/VGND _18_/VPWR sky130_fd_sc_hd__decap_3
XFILLER_19_114 PHY_39/VGND _22_/VPWR sky130_fd_sc_hd__decap_4
XFILLER_19_71 PHY_39/VGND _22_/VPWR sky130_fd_sc_hd__decap_12
Xmem_bottom_ipin_1.sc_dff_compact_0_.sky130_fd_sc_hd__dfrbp_1 mem_bottom_ipin_0.sc_dff_compact_5_.sky130_fd_sc_hd__dfrbp_1/Q