* NGSPICE file created from sb_1__1_.ext - technology: sky130A

* Black-box entry subcircuit for sky130_fd_sc_hd__tapvpwrvgnd_1 abstract view
.subckt sky130_fd_sc_hd__tapvpwrvgnd_1 VGND VPWR
.ends

* Black-box entry subcircuit for sky130_fd_sc_hd__dfrbp_1 abstract view
.subckt sky130_fd_sc_hd__dfrbp_1 D Q Q_N RESET_B CLK VGND VPWR
.ends

* Black-box entry subcircuit for sky130_fd_sc_hd__clkbuf_1 abstract view
.subckt sky130_fd_sc_hd__clkbuf_1 A X VGND VPWR
.ends

* Black-box entry subcircuit for sky130_fd_sc_hd__decap_3 abstract view
.subckt sky130_fd_sc_hd__decap_3 VGND VPWR
.ends

* Black-box entry subcircuit for sky130_fd_sc_hd__buf_2 abstract view
.subckt sky130_fd_sc_hd__buf_2 A X VGND VPWR
.ends

* Black-box entry subcircuit for sky130_fd_sc_hd__conb_1 abstract view
.subckt sky130_fd_sc_hd__conb_1 HI LO VGND VPWR
.ends

* Black-box entry subcircuit for sky130_fd_sc_hd__clkbuf_16 abstract view
.subckt sky130_fd_sc_hd__clkbuf_16 A X VGND VPWR
.ends

.subckt sb_1__1_ bottom_left_grid_pin_13_ bottom_right_grid_pin_11_ ccff_head ccff_tail
+ chanx_left_in[0] chanx_left_in[1] chanx_left_in[2] chanx_left_in[3] chanx_left_in[4]
+ chanx_left_in[5] chanx_left_in[6] chanx_left_in[7] chanx_left_in[8] chanx_left_out[0]
+ chanx_left_out[1] chanx_left_out[2] chanx_left_out[3] chanx_left_out[4] chanx_left_out[5]
+ chanx_left_out[6] chanx_left_out[7] chanx_left_out[8] chanx_right_in[0] chanx_right_in[1]
+ chanx_right_in[2] chanx_right_in[3] chanx_right_in[4] chanx_right_in[5] chanx_right_in[6]
+ chanx_right_in[7] chanx_right_in[8] chanx_right_out[0] chanx_right_out[1] chanx_right_out[2]
+ chanx_right_out[3] chanx_right_out[4] chanx_right_out[5] chanx_right_out[6] chanx_right_out[7]
+ chanx_right_out[8] chany_bottom_in[0] chany_bottom_in[1] chany_bottom_in[2] chany_bottom_in[3]
+ chany_bottom_in[4] chany_bottom_in[5] chany_bottom_in[6] chany_bottom_in[7] chany_bottom_in[8]
+ chany_bottom_out[0] chany_bottom_out[1] chany_bottom_out[2] chany_bottom_out[3]
+ chany_bottom_out[4] chany_bottom_out[5] chany_bottom_out[6] chany_bottom_out[7]
+ chany_bottom_out[8] chany_top_in[0] chany_top_in[1] chany_top_in[2] chany_top_in[3]
+ chany_top_in[4] chany_top_in[5] chany_top_in[6] chany_top_in[7] chany_top_in[8]
+ chany_top_out[0] chany_top_out[1] chany_top_out[2] chany_top_out[3] chany_top_out[4]
+ chany_top_out[5] chany_top_out[6] chany_top_out[7] chany_top_out[8] left_bottom_grid_pin_12_
+ left_top_grid_pin_10_ pReset prog_clk right_bottom_grid_pin_12_ right_top_grid_pin_10_
+ top_left_grid_pin_13_ top_right_grid_pin_11_ VPWR VGND
XPHY_3109 VGND VPWR sky130_fd_sc_hd__tapvpwrvgnd_1
XPHY_2408 VGND VPWR sky130_fd_sc_hd__tapvpwrvgnd_1
XPHY_1707 VGND VPWR sky130_fd_sc_hd__tapvpwrvgnd_1
XPHY_2419 VGND VPWR sky130_fd_sc_hd__tapvpwrvgnd_1
XPHY_1729 VGND VPWR sky130_fd_sc_hd__tapvpwrvgnd_1
XPHY_1718 VGND VPWR sky130_fd_sc_hd__tapvpwrvgnd_1
XPHY_5001 VGND VPWR sky130_fd_sc_hd__tapvpwrvgnd_1
XPHY_5012 VGND VPWR sky130_fd_sc_hd__tapvpwrvgnd_1
XPHY_4300 VGND VPWR sky130_fd_sc_hd__tapvpwrvgnd_1
XPHY_4311 VGND VPWR sky130_fd_sc_hd__tapvpwrvgnd_1
XPHY_5023 VGND VPWR sky130_fd_sc_hd__tapvpwrvgnd_1
XPHY_5034 VGND VPWR sky130_fd_sc_hd__tapvpwrvgnd_1
XPHY_5045 VGND VPWR sky130_fd_sc_hd__tapvpwrvgnd_1
XPHY_4344 VGND VPWR sky130_fd_sc_hd__tapvpwrvgnd_1
XPHY_4322 VGND VPWR sky130_fd_sc_hd__tapvpwrvgnd_1
XPHY_4333 VGND VPWR sky130_fd_sc_hd__tapvpwrvgnd_1
XPHY_5067 VGND VPWR sky130_fd_sc_hd__tapvpwrvgnd_1
XPHY_5078 VGND VPWR sky130_fd_sc_hd__tapvpwrvgnd_1
XPHY_5056 VGND VPWR sky130_fd_sc_hd__tapvpwrvgnd_1
XPHY_5089 VGND VPWR sky130_fd_sc_hd__tapvpwrvgnd_1
XPHY_3610 VGND VPWR sky130_fd_sc_hd__tapvpwrvgnd_1
XPHY_3621 VGND VPWR sky130_fd_sc_hd__tapvpwrvgnd_1
XPHY_3632 VGND VPWR sky130_fd_sc_hd__tapvpwrvgnd_1
XPHY_4355 VGND VPWR sky130_fd_sc_hd__tapvpwrvgnd_1
XPHY_4366 VGND VPWR sky130_fd_sc_hd__tapvpwrvgnd_1
XPHY_4377 VGND VPWR sky130_fd_sc_hd__tapvpwrvgnd_1
XPHY_2931 VGND VPWR sky130_fd_sc_hd__tapvpwrvgnd_1
XPHY_2920 VGND VPWR sky130_fd_sc_hd__tapvpwrvgnd_1
XPHY_3665 VGND VPWR sky130_fd_sc_hd__tapvpwrvgnd_1
XPHY_3643 VGND VPWR sky130_fd_sc_hd__tapvpwrvgnd_1
XPHY_3676 VGND VPWR sky130_fd_sc_hd__tapvpwrvgnd_1
XPHY_3654 VGND VPWR sky130_fd_sc_hd__tapvpwrvgnd_1
XPHY_4388 VGND VPWR sky130_fd_sc_hd__tapvpwrvgnd_1
XPHY_4399 VGND VPWR sky130_fd_sc_hd__tapvpwrvgnd_1
XPHY_2942 VGND VPWR sky130_fd_sc_hd__tapvpwrvgnd_1
XPHY_2953 VGND VPWR sky130_fd_sc_hd__tapvpwrvgnd_1
XPHY_2964 VGND VPWR sky130_fd_sc_hd__tapvpwrvgnd_1
XPHY_3687 VGND VPWR sky130_fd_sc_hd__tapvpwrvgnd_1
XPHY_3698 VGND VPWR sky130_fd_sc_hd__tapvpwrvgnd_1
XPHY_2986 VGND VPWR sky130_fd_sc_hd__tapvpwrvgnd_1
XPHY_2997 VGND VPWR sky130_fd_sc_hd__tapvpwrvgnd_1
XPHY_2975 VGND VPWR sky130_fd_sc_hd__tapvpwrvgnd_1
XPHY_5590 VGND VPWR sky130_fd_sc_hd__tapvpwrvgnd_1
XPHY_927 VGND VPWR sky130_fd_sc_hd__tapvpwrvgnd_1
XPHY_916 VGND VPWR sky130_fd_sc_hd__tapvpwrvgnd_1
XPHY_905 VGND VPWR sky130_fd_sc_hd__tapvpwrvgnd_1
XPHY_2205 VGND VPWR sky130_fd_sc_hd__tapvpwrvgnd_1
XPHY_2216 VGND VPWR sky130_fd_sc_hd__tapvpwrvgnd_1
XPHY_1515 VGND VPWR sky130_fd_sc_hd__tapvpwrvgnd_1
XPHY_1504 VGND VPWR sky130_fd_sc_hd__tapvpwrvgnd_1
XPHY_949 VGND VPWR sky130_fd_sc_hd__tapvpwrvgnd_1
XPHY_938 VGND VPWR sky130_fd_sc_hd__tapvpwrvgnd_1
XPHY_2249 VGND VPWR sky130_fd_sc_hd__tapvpwrvgnd_1
XPHY_2227 VGND VPWR sky130_fd_sc_hd__tapvpwrvgnd_1
XPHY_2238 VGND VPWR sky130_fd_sc_hd__tapvpwrvgnd_1
XPHY_1548 VGND VPWR sky130_fd_sc_hd__tapvpwrvgnd_1
XPHY_1537 VGND VPWR sky130_fd_sc_hd__tapvpwrvgnd_1
XPHY_1526 VGND VPWR sky130_fd_sc_hd__tapvpwrvgnd_1
XPHY_1559 VGND VPWR sky130_fd_sc_hd__tapvpwrvgnd_1
XPHY_4152 VGND VPWR sky130_fd_sc_hd__tapvpwrvgnd_1
XPHY_4130 VGND VPWR sky130_fd_sc_hd__tapvpwrvgnd_1
XPHY_4141 VGND VPWR sky130_fd_sc_hd__tapvpwrvgnd_1
Xmem_bottom_track_1.sc_dff_compact_1_.sky130_fd_sc_hd__dfrbp_1 mem_bottom_track_1.sc_dff_compact_1_.sky130_fd_sc_hd__dfrbp_1/D
+ mem_bottom_track_1.sc_dff_compact_1_.sky130_fd_sc_hd__dfrbp_1/Q mem_bottom_track_1.sc_dff_compact_1_.sky130_fd_sc_hd__dfrbp_1/Q_N
+ mem_bottom_track_1.sc_dff_compact_1_.sky130_fd_sc_hd__dfrbp_1/RESET_B mem_bottom_track_1.sc_dff_compact_1_.sky130_fd_sc_hd__dfrbp_1/CLK
+ VGND VPWR sky130_fd_sc_hd__dfrbp_1
XPHY_3451 VGND VPWR sky130_fd_sc_hd__tapvpwrvgnd_1
XPHY_3440 VGND VPWR sky130_fd_sc_hd__tapvpwrvgnd_1
XPHY_4174 VGND VPWR sky130_fd_sc_hd__tapvpwrvgnd_1
XPHY_4185 VGND VPWR sky130_fd_sc_hd__tapvpwrvgnd_1
XPHY_4163 VGND VPWR sky130_fd_sc_hd__tapvpwrvgnd_1
XPHY_3462 VGND VPWR sky130_fd_sc_hd__tapvpwrvgnd_1
XPHY_3473 VGND VPWR sky130_fd_sc_hd__tapvpwrvgnd_1
XPHY_3484 VGND VPWR sky130_fd_sc_hd__tapvpwrvgnd_1
XPHY_4196 VGND VPWR sky130_fd_sc_hd__tapvpwrvgnd_1
XPHY_2772 VGND VPWR sky130_fd_sc_hd__tapvpwrvgnd_1
XPHY_2750 VGND VPWR sky130_fd_sc_hd__tapvpwrvgnd_1
XPHY_2761 VGND VPWR sky130_fd_sc_hd__tapvpwrvgnd_1
XPHY_3495 VGND VPWR sky130_fd_sc_hd__tapvpwrvgnd_1
XPHY_2783 VGND VPWR sky130_fd_sc_hd__tapvpwrvgnd_1
XPHY_2794 VGND VPWR sky130_fd_sc_hd__tapvpwrvgnd_1
XPHY_702 VGND VPWR sky130_fd_sc_hd__tapvpwrvgnd_1
XPHY_724 VGND VPWR sky130_fd_sc_hd__tapvpwrvgnd_1
XPHY_735 VGND VPWR sky130_fd_sc_hd__tapvpwrvgnd_1
XPHY_713 VGND VPWR sky130_fd_sc_hd__tapvpwrvgnd_1
XPHY_2013 VGND VPWR sky130_fd_sc_hd__tapvpwrvgnd_1
XPHY_2024 VGND VPWR sky130_fd_sc_hd__tapvpwrvgnd_1
XPHY_2002 VGND VPWR sky130_fd_sc_hd__tapvpwrvgnd_1
XPHY_2035 VGND VPWR sky130_fd_sc_hd__tapvpwrvgnd_1
XPHY_1323 VGND VPWR sky130_fd_sc_hd__tapvpwrvgnd_1
XPHY_1312 VGND VPWR sky130_fd_sc_hd__tapvpwrvgnd_1
XPHY_1301 VGND VPWR sky130_fd_sc_hd__tapvpwrvgnd_1
XPHY_768 VGND VPWR sky130_fd_sc_hd__tapvpwrvgnd_1
XPHY_746 VGND VPWR sky130_fd_sc_hd__tapvpwrvgnd_1
XPHY_757 VGND VPWR sky130_fd_sc_hd__tapvpwrvgnd_1
XPHY_2068 VGND VPWR sky130_fd_sc_hd__tapvpwrvgnd_1
XPHY_2046 VGND VPWR sky130_fd_sc_hd__tapvpwrvgnd_1
XPHY_2057 VGND VPWR sky130_fd_sc_hd__tapvpwrvgnd_1
XPHY_1345 VGND VPWR sky130_fd_sc_hd__tapvpwrvgnd_1
XPHY_1334 VGND VPWR sky130_fd_sc_hd__tapvpwrvgnd_1
XPHY_1356 VGND VPWR sky130_fd_sc_hd__tapvpwrvgnd_1
XPHY_779 VGND VPWR sky130_fd_sc_hd__tapvpwrvgnd_1
XPHY_2079 VGND VPWR sky130_fd_sc_hd__tapvpwrvgnd_1
XPHY_1389 VGND VPWR sky130_fd_sc_hd__tapvpwrvgnd_1
XPHY_1378 VGND VPWR sky130_fd_sc_hd__tapvpwrvgnd_1
XPHY_1367 VGND VPWR sky130_fd_sc_hd__tapvpwrvgnd_1
XPHY_3270 VGND VPWR sky130_fd_sc_hd__tapvpwrvgnd_1
XPHY_3281 VGND VPWR sky130_fd_sc_hd__tapvpwrvgnd_1
XPHY_3292 VGND VPWR sky130_fd_sc_hd__tapvpwrvgnd_1
XPHY_2580 VGND VPWR sky130_fd_sc_hd__tapvpwrvgnd_1
XPHY_2591 VGND VPWR sky130_fd_sc_hd__tapvpwrvgnd_1
XPHY_1890 VGND VPWR sky130_fd_sc_hd__tapvpwrvgnd_1
Xclkbuf_3_4_0_prog_clk clkbuf_3_4_0_prog_clk/A clkbuf_3_4_0_prog_clk/X VGND VPWR sky130_fd_sc_hd__clkbuf_1
Xmem_right_track_0.sc_dff_compact_5_.sky130_fd_sc_hd__dfrbp_1 mem_right_track_0.sc_dff_compact_5_.sky130_fd_sc_hd__dfrbp_1/D
+ mem_right_track_0.sc_dff_compact_5_.sky130_fd_sc_hd__dfrbp_1/Q mem_right_track_0.sc_dff_compact_5_.sky130_fd_sc_hd__dfrbp_1/Q_N
+ mem_right_track_0.sc_dff_compact_5_.sky130_fd_sc_hd__dfrbp_1/RESET_B mem_right_track_0.sc_dff_compact_5_.sky130_fd_sc_hd__dfrbp_1/CLK
+ VGND VPWR sky130_fd_sc_hd__dfrbp_1
XPHY_510 VGND VPWR sky130_fd_sc_hd__tapvpwrvgnd_1
XPHY_521 VGND VPWR sky130_fd_sc_hd__tapvpwrvgnd_1
XPHY_543 VGND VPWR sky130_fd_sc_hd__tapvpwrvgnd_1
XPHY_532 VGND VPWR sky130_fd_sc_hd__tapvpwrvgnd_1
XPHY_1131 VGND VPWR sky130_fd_sc_hd__tapvpwrvgnd_1
XPHY_1120 VGND VPWR sky130_fd_sc_hd__tapvpwrvgnd_1
XPHY_576 VGND VPWR sky130_fd_sc_hd__tapvpwrvgnd_1
XPHY_565 VGND VPWR sky130_fd_sc_hd__tapvpwrvgnd_1
XPHY_554 VGND VPWR sky130_fd_sc_hd__tapvpwrvgnd_1
XPHY_587 VGND VPWR sky130_fd_sc_hd__tapvpwrvgnd_1
Xmem_top_track_16.sc_dff_compact_0_.sky130_fd_sc_hd__dfrbp_1 mem_top_track_16.sc_dff_compact_0_.sky130_fd_sc_hd__dfrbp_1/D
+ mem_top_track_16.sc_dff_compact_0_.sky130_fd_sc_hd__dfrbp_1/Q mem_top_track_16.sc_dff_compact_0_.sky130_fd_sc_hd__dfrbp_1/Q_N
+ mem_top_track_16.sc_dff_compact_0_.sky130_fd_sc_hd__dfrbp_1/RESET_B mem_top_track_16.sc_dff_compact_0_.sky130_fd_sc_hd__dfrbp_1/CLK
+ VGND VPWR sky130_fd_sc_hd__dfrbp_1
XPHY_1164 VGND VPWR sky130_fd_sc_hd__tapvpwrvgnd_1
XPHY_1153 VGND VPWR sky130_fd_sc_hd__tapvpwrvgnd_1
XPHY_1175 VGND VPWR sky130_fd_sc_hd__tapvpwrvgnd_1
XPHY_1142 VGND VPWR sky130_fd_sc_hd__tapvpwrvgnd_1
XPHY_598 VGND VPWR sky130_fd_sc_hd__tapvpwrvgnd_1
XPHY_1197 VGND VPWR sky130_fd_sc_hd__tapvpwrvgnd_1
XPHY_1186 VGND VPWR sky130_fd_sc_hd__tapvpwrvgnd_1
XPHY_6109 VGND VPWR sky130_fd_sc_hd__tapvpwrvgnd_1
XPHY_5408 VGND VPWR sky130_fd_sc_hd__tapvpwrvgnd_1
XPHY_5419 VGND VPWR sky130_fd_sc_hd__tapvpwrvgnd_1
XPHY_4707 VGND VPWR sky130_fd_sc_hd__tapvpwrvgnd_1
XPHY_4718 VGND VPWR sky130_fd_sc_hd__tapvpwrvgnd_1
XPHY_4729 VGND VPWR sky130_fd_sc_hd__tapvpwrvgnd_1
Xmem_right_track_16.sc_dff_compact_0_.sky130_fd_sc_hd__dfrbp_1 mem_right_track_16.sc_dff_compact_0_.sky130_fd_sc_hd__dfrbp_1/D
+ mem_right_track_16.sc_dff_compact_0_.sky130_fd_sc_hd__dfrbp_1/Q mem_right_track_16.sc_dff_compact_0_.sky130_fd_sc_hd__dfrbp_1/Q_N
+ mem_right_track_16.sc_dff_compact_0_.sky130_fd_sc_hd__dfrbp_1/RESET_B mem_right_track_16.sc_dff_compact_0_.sky130_fd_sc_hd__dfrbp_1/CLK
+ VGND VPWR sky130_fd_sc_hd__dfrbp_1
XPHY_5920 VGND VPWR sky130_fd_sc_hd__tapvpwrvgnd_1
XPHY_5931 VGND VPWR sky130_fd_sc_hd__tapvpwrvgnd_1
XPHY_5942 VGND VPWR sky130_fd_sc_hd__tapvpwrvgnd_1
XPHY_5964 VGND VPWR sky130_fd_sc_hd__tapvpwrvgnd_1
XPHY_5975 VGND VPWR sky130_fd_sc_hd__tapvpwrvgnd_1
XPHY_5953 VGND VPWR sky130_fd_sc_hd__tapvpwrvgnd_1
XPHY_5986 VGND VPWR sky130_fd_sc_hd__tapvpwrvgnd_1
XPHY_5997 VGND VPWR sky130_fd_sc_hd__tapvpwrvgnd_1
XPHY_340 VGND VPWR sky130_fd_sc_hd__decap_3
XPHY_351 VGND VPWR sky130_fd_sc_hd__decap_3
XPHY_362 VGND VPWR sky130_fd_sc_hd__decap_3
XPHY_373 VGND VPWR sky130_fd_sc_hd__decap_3
XPHY_384 VGND VPWR sky130_fd_sc_hd__decap_3
XPHY_395 VGND VPWR sky130_fd_sc_hd__decap_3
Xmem_bottom_track_17.sc_dff_compact_2_.sky130_fd_sc_hd__dfrbp_1 mem_bottom_track_17.sc_dff_compact_2_.sky130_fd_sc_hd__dfrbp_1/D
+ mem_bottom_track_17.sc_dff_compact_2_.sky130_fd_sc_hd__dfrbp_1/Q mem_bottom_track_17.sc_dff_compact_2_.sky130_fd_sc_hd__dfrbp_1/Q_N
+ mem_bottom_track_17.sc_dff_compact_2_.sky130_fd_sc_hd__dfrbp_1/RESET_B mem_bottom_track_17.sc_dff_compact_2_.sky130_fd_sc_hd__dfrbp_1/CLK
+ VGND VPWR sky130_fd_sc_hd__dfrbp_1
XPHY_5205 VGND VPWR sky130_fd_sc_hd__tapvpwrvgnd_1
XPHY_5238 VGND VPWR sky130_fd_sc_hd__tapvpwrvgnd_1
XPHY_5216 VGND VPWR sky130_fd_sc_hd__tapvpwrvgnd_1
XPHY_5227 VGND VPWR sky130_fd_sc_hd__tapvpwrvgnd_1
XPHY_4504 VGND VPWR sky130_fd_sc_hd__tapvpwrvgnd_1
XPHY_4515 VGND VPWR sky130_fd_sc_hd__tapvpwrvgnd_1
XPHY_4526 VGND VPWR sky130_fd_sc_hd__tapvpwrvgnd_1
XPHY_5249 VGND VPWR sky130_fd_sc_hd__tapvpwrvgnd_1
XPHY_3825 VGND VPWR sky130_fd_sc_hd__tapvpwrvgnd_1
XPHY_3803 VGND VPWR sky130_fd_sc_hd__tapvpwrvgnd_1
XPHY_3814 VGND VPWR sky130_fd_sc_hd__tapvpwrvgnd_1
XPHY_4559 VGND VPWR sky130_fd_sc_hd__tapvpwrvgnd_1
XPHY_4537 VGND VPWR sky130_fd_sc_hd__tapvpwrvgnd_1
XPHY_4548 VGND VPWR sky130_fd_sc_hd__tapvpwrvgnd_1
XPHY_3836 VGND VPWR sky130_fd_sc_hd__tapvpwrvgnd_1
XPHY_3847 VGND VPWR sky130_fd_sc_hd__tapvpwrvgnd_1
XPHY_3858 VGND VPWR sky130_fd_sc_hd__tapvpwrvgnd_1
XPHY_3869 VGND VPWR sky130_fd_sc_hd__tapvpwrvgnd_1
XPHY_5750 VGND VPWR sky130_fd_sc_hd__tapvpwrvgnd_1
XPHY_5761 VGND VPWR sky130_fd_sc_hd__tapvpwrvgnd_1
XPHY_5772 VGND VPWR sky130_fd_sc_hd__tapvpwrvgnd_1
XPHY_5783 VGND VPWR sky130_fd_sc_hd__tapvpwrvgnd_1
XPHY_5794 VGND VPWR sky130_fd_sc_hd__tapvpwrvgnd_1
XPHY_170 VGND VPWR sky130_fd_sc_hd__decap_3
XPHY_181 VGND VPWR sky130_fd_sc_hd__decap_3
XPHY_192 VGND VPWR sky130_fd_sc_hd__decap_3
XPHY_2409 VGND VPWR sky130_fd_sc_hd__tapvpwrvgnd_1
XPHY_1719 VGND VPWR sky130_fd_sc_hd__tapvpwrvgnd_1
XPHY_1708 VGND VPWR sky130_fd_sc_hd__tapvpwrvgnd_1
XPHY_5002 VGND VPWR sky130_fd_sc_hd__tapvpwrvgnd_1
XPHY_5013 VGND VPWR sky130_fd_sc_hd__tapvpwrvgnd_1
XPHY_4301 VGND VPWR sky130_fd_sc_hd__tapvpwrvgnd_1
XPHY_5024 VGND VPWR sky130_fd_sc_hd__tapvpwrvgnd_1
XPHY_5035 VGND VPWR sky130_fd_sc_hd__tapvpwrvgnd_1
XPHY_5046 VGND VPWR sky130_fd_sc_hd__tapvpwrvgnd_1
XPHY_4312 VGND VPWR sky130_fd_sc_hd__tapvpwrvgnd_1
XPHY_4323 VGND VPWR sky130_fd_sc_hd__tapvpwrvgnd_1
XPHY_4334 VGND VPWR sky130_fd_sc_hd__tapvpwrvgnd_1
XPHY_5068 VGND VPWR sky130_fd_sc_hd__tapvpwrvgnd_1
XPHY_5079 VGND VPWR sky130_fd_sc_hd__tapvpwrvgnd_1
XPHY_5057 VGND VPWR sky130_fd_sc_hd__tapvpwrvgnd_1
XPHY_3611 VGND VPWR sky130_fd_sc_hd__tapvpwrvgnd_1
XPHY_3622 VGND VPWR sky130_fd_sc_hd__tapvpwrvgnd_1
XPHY_3600 VGND VPWR sky130_fd_sc_hd__tapvpwrvgnd_1
XPHY_3633 VGND VPWR sky130_fd_sc_hd__tapvpwrvgnd_1
XPHY_4345 VGND VPWR sky130_fd_sc_hd__tapvpwrvgnd_1
XPHY_4356 VGND VPWR sky130_fd_sc_hd__tapvpwrvgnd_1
XPHY_4367 VGND VPWR sky130_fd_sc_hd__tapvpwrvgnd_1
XPHY_4378 VGND VPWR sky130_fd_sc_hd__tapvpwrvgnd_1
XPHY_2910 VGND VPWR sky130_fd_sc_hd__tapvpwrvgnd_1
XPHY_2921 VGND VPWR sky130_fd_sc_hd__tapvpwrvgnd_1
XPHY_3666 VGND VPWR sky130_fd_sc_hd__tapvpwrvgnd_1
XPHY_3644 VGND VPWR sky130_fd_sc_hd__tapvpwrvgnd_1
XPHY_3655 VGND VPWR sky130_fd_sc_hd__tapvpwrvgnd_1
XPHY_4389 VGND VPWR sky130_fd_sc_hd__tapvpwrvgnd_1
XPHY_2932 VGND VPWR sky130_fd_sc_hd__tapvpwrvgnd_1
XPHY_2943 VGND VPWR sky130_fd_sc_hd__tapvpwrvgnd_1
XPHY_2954 VGND VPWR sky130_fd_sc_hd__tapvpwrvgnd_1
XPHY_2965 VGND VPWR sky130_fd_sc_hd__tapvpwrvgnd_1
XPHY_3677 VGND VPWR sky130_fd_sc_hd__tapvpwrvgnd_1
XPHY_3688 VGND VPWR sky130_fd_sc_hd__tapvpwrvgnd_1
XPHY_3699 VGND VPWR sky130_fd_sc_hd__tapvpwrvgnd_1
XPHY_2976 VGND VPWR sky130_fd_sc_hd__tapvpwrvgnd_1
XPHY_2987 VGND VPWR sky130_fd_sc_hd__tapvpwrvgnd_1
XPHY_2998 VGND VPWR sky130_fd_sc_hd__tapvpwrvgnd_1
XPHY_5591 VGND VPWR sky130_fd_sc_hd__tapvpwrvgnd_1
XPHY_5580 VGND VPWR sky130_fd_sc_hd__tapvpwrvgnd_1
XPHY_4890 VGND VPWR sky130_fd_sc_hd__tapvpwrvgnd_1
XPHY_917 VGND VPWR sky130_fd_sc_hd__tapvpwrvgnd_1
XPHY_906 VGND VPWR sky130_fd_sc_hd__tapvpwrvgnd_1
XPHY_2206 VGND VPWR sky130_fd_sc_hd__tapvpwrvgnd_1
XPHY_2217 VGND VPWR sky130_fd_sc_hd__tapvpwrvgnd_1
XPHY_1505 VGND VPWR sky130_fd_sc_hd__tapvpwrvgnd_1
XPHY_928 VGND VPWR sky130_fd_sc_hd__tapvpwrvgnd_1
XPHY_939 VGND VPWR sky130_fd_sc_hd__tapvpwrvgnd_1
XPHY_2228 VGND VPWR sky130_fd_sc_hd__tapvpwrvgnd_1
XPHY_2239 VGND VPWR sky130_fd_sc_hd__tapvpwrvgnd_1
XPHY_1549 VGND VPWR sky130_fd_sc_hd__tapvpwrvgnd_1
XPHY_1516 VGND VPWR sky130_fd_sc_hd__tapvpwrvgnd_1
XPHY_1538 VGND VPWR sky130_fd_sc_hd__tapvpwrvgnd_1
XPHY_1527 VGND VPWR sky130_fd_sc_hd__tapvpwrvgnd_1
XPHY_4120 VGND VPWR sky130_fd_sc_hd__tapvpwrvgnd_1
XPHY_4153 VGND VPWR sky130_fd_sc_hd__tapvpwrvgnd_1
XPHY_4131 VGND VPWR sky130_fd_sc_hd__tapvpwrvgnd_1
XPHY_4142 VGND VPWR sky130_fd_sc_hd__tapvpwrvgnd_1
XPHY_3430 VGND VPWR sky130_fd_sc_hd__tapvpwrvgnd_1
XPHY_3441 VGND VPWR sky130_fd_sc_hd__tapvpwrvgnd_1
XPHY_4175 VGND VPWR sky130_fd_sc_hd__tapvpwrvgnd_1
XPHY_4186 VGND VPWR sky130_fd_sc_hd__tapvpwrvgnd_1
XPHY_4164 VGND VPWR sky130_fd_sc_hd__tapvpwrvgnd_1
XPHY_3452 VGND VPWR sky130_fd_sc_hd__tapvpwrvgnd_1
XPHY_3463 VGND VPWR sky130_fd_sc_hd__tapvpwrvgnd_1
XPHY_3474 VGND VPWR sky130_fd_sc_hd__tapvpwrvgnd_1
XPHY_4197 VGND VPWR sky130_fd_sc_hd__tapvpwrvgnd_1
XPHY_2773 VGND VPWR sky130_fd_sc_hd__tapvpwrvgnd_1
XPHY_2751 VGND VPWR sky130_fd_sc_hd__tapvpwrvgnd_1
XPHY_2762 VGND VPWR sky130_fd_sc_hd__tapvpwrvgnd_1
XPHY_2740 VGND VPWR sky130_fd_sc_hd__tapvpwrvgnd_1
XPHY_3496 VGND VPWR sky130_fd_sc_hd__tapvpwrvgnd_1
XPHY_3485 VGND VPWR sky130_fd_sc_hd__tapvpwrvgnd_1
XPHY_2784 VGND VPWR sky130_fd_sc_hd__tapvpwrvgnd_1
XPHY_2795 VGND VPWR sky130_fd_sc_hd__tapvpwrvgnd_1
XPHY_725 VGND VPWR sky130_fd_sc_hd__tapvpwrvgnd_1
XPHY_703 VGND VPWR sky130_fd_sc_hd__tapvpwrvgnd_1
XPHY_736 VGND VPWR sky130_fd_sc_hd__tapvpwrvgnd_1
XPHY_714 VGND VPWR sky130_fd_sc_hd__tapvpwrvgnd_1
XPHY_2014 VGND VPWR sky130_fd_sc_hd__tapvpwrvgnd_1
XPHY_2025 VGND VPWR sky130_fd_sc_hd__tapvpwrvgnd_1
XPHY_2003 VGND VPWR sky130_fd_sc_hd__tapvpwrvgnd_1
XPHY_1324 VGND VPWR sky130_fd_sc_hd__tapvpwrvgnd_1
XPHY_1313 VGND VPWR sky130_fd_sc_hd__tapvpwrvgnd_1
XPHY_1302 VGND VPWR sky130_fd_sc_hd__tapvpwrvgnd_1
XPHY_769 VGND VPWR sky130_fd_sc_hd__tapvpwrvgnd_1
XPHY_747 VGND VPWR sky130_fd_sc_hd__tapvpwrvgnd_1
XPHY_758 VGND VPWR sky130_fd_sc_hd__tapvpwrvgnd_1
XPHY_2036 VGND VPWR sky130_fd_sc_hd__tapvpwrvgnd_1
XPHY_2047 VGND VPWR sky130_fd_sc_hd__tapvpwrvgnd_1
XPHY_2058 VGND VPWR sky130_fd_sc_hd__tapvpwrvgnd_1
XPHY_1346 VGND VPWR sky130_fd_sc_hd__tapvpwrvgnd_1
XPHY_1335 VGND VPWR sky130_fd_sc_hd__tapvpwrvgnd_1
XPHY_1357 VGND VPWR sky130_fd_sc_hd__tapvpwrvgnd_1
XPHY_2069 VGND VPWR sky130_fd_sc_hd__tapvpwrvgnd_1
XPHY_1379 VGND VPWR sky130_fd_sc_hd__tapvpwrvgnd_1
XPHY_1368 VGND VPWR sky130_fd_sc_hd__tapvpwrvgnd_1
XPHY_3260 VGND VPWR sky130_fd_sc_hd__tapvpwrvgnd_1
XPHY_3271 VGND VPWR sky130_fd_sc_hd__tapvpwrvgnd_1
XPHY_3282 VGND VPWR sky130_fd_sc_hd__tapvpwrvgnd_1
XPHY_3293 VGND VPWR sky130_fd_sc_hd__tapvpwrvgnd_1
XPHY_2581 VGND VPWR sky130_fd_sc_hd__tapvpwrvgnd_1
XPHY_2570 VGND VPWR sky130_fd_sc_hd__tapvpwrvgnd_1
XPHY_2592 VGND VPWR sky130_fd_sc_hd__tapvpwrvgnd_1
XPHY_1880 VGND VPWR sky130_fd_sc_hd__tapvpwrvgnd_1
XPHY_1891 VGND VPWR sky130_fd_sc_hd__tapvpwrvgnd_1
XPHY_500 VGND VPWR sky130_fd_sc_hd__tapvpwrvgnd_1
XPHY_522 VGND VPWR sky130_fd_sc_hd__tapvpwrvgnd_1
XPHY_511 VGND VPWR sky130_fd_sc_hd__tapvpwrvgnd_1
XPHY_544 VGND VPWR sky130_fd_sc_hd__tapvpwrvgnd_1
XPHY_533 VGND VPWR sky130_fd_sc_hd__tapvpwrvgnd_1
XPHY_1110 VGND VPWR sky130_fd_sc_hd__tapvpwrvgnd_1
XPHY_1132 VGND VPWR sky130_fd_sc_hd__tapvpwrvgnd_1
XPHY_1121 VGND VPWR sky130_fd_sc_hd__tapvpwrvgnd_1
XPHY_566 VGND VPWR sky130_fd_sc_hd__tapvpwrvgnd_1
XPHY_555 VGND VPWR sky130_fd_sc_hd__tapvpwrvgnd_1
XPHY_577 VGND VPWR sky130_fd_sc_hd__tapvpwrvgnd_1
XPHY_1165 VGND VPWR sky130_fd_sc_hd__tapvpwrvgnd_1
XPHY_1154 VGND VPWR sky130_fd_sc_hd__tapvpwrvgnd_1
XPHY_1143 VGND VPWR sky130_fd_sc_hd__tapvpwrvgnd_1
XPHY_588 VGND VPWR sky130_fd_sc_hd__tapvpwrvgnd_1
XPHY_599 VGND VPWR sky130_fd_sc_hd__tapvpwrvgnd_1
XPHY_1198 VGND VPWR sky130_fd_sc_hd__tapvpwrvgnd_1
XPHY_1187 VGND VPWR sky130_fd_sc_hd__tapvpwrvgnd_1
XPHY_1176 VGND VPWR sky130_fd_sc_hd__tapvpwrvgnd_1
XPHY_3090 VGND VPWR sky130_fd_sc_hd__tapvpwrvgnd_1
XPHY_5409 VGND VPWR sky130_fd_sc_hd__tapvpwrvgnd_1
XPHY_4708 VGND VPWR sky130_fd_sc_hd__tapvpwrvgnd_1
XPHY_4719 VGND VPWR sky130_fd_sc_hd__tapvpwrvgnd_1
XPHY_5921 VGND VPWR sky130_fd_sc_hd__tapvpwrvgnd_1
XPHY_5932 VGND VPWR sky130_fd_sc_hd__tapvpwrvgnd_1
XPHY_5910 VGND VPWR sky130_fd_sc_hd__tapvpwrvgnd_1
XPHY_5943 VGND VPWR sky130_fd_sc_hd__tapvpwrvgnd_1
XPHY_5965 VGND VPWR sky130_fd_sc_hd__tapvpwrvgnd_1
XPHY_5976 VGND VPWR sky130_fd_sc_hd__tapvpwrvgnd_1
XPHY_5954 VGND VPWR sky130_fd_sc_hd__tapvpwrvgnd_1
XPHY_5987 VGND VPWR sky130_fd_sc_hd__tapvpwrvgnd_1
XPHY_5998 VGND VPWR sky130_fd_sc_hd__tapvpwrvgnd_1
XPHY_330 VGND VPWR sky130_fd_sc_hd__decap_3
XPHY_341 VGND VPWR sky130_fd_sc_hd__decap_3
XPHY_352 VGND VPWR sky130_fd_sc_hd__decap_3
XPHY_363 VGND VPWR sky130_fd_sc_hd__decap_3
XPHY_374 VGND VPWR sky130_fd_sc_hd__decap_3
XPHY_385 VGND VPWR sky130_fd_sc_hd__decap_3
XPHY_396 VGND VPWR sky130_fd_sc_hd__decap_3
XPHY_5206 VGND VPWR sky130_fd_sc_hd__tapvpwrvgnd_1
XPHY_5217 VGND VPWR sky130_fd_sc_hd__tapvpwrvgnd_1
XPHY_5228 VGND VPWR sky130_fd_sc_hd__tapvpwrvgnd_1
XPHY_4505 VGND VPWR sky130_fd_sc_hd__tapvpwrvgnd_1
XPHY_4516 VGND VPWR sky130_fd_sc_hd__tapvpwrvgnd_1
XPHY_4527 VGND VPWR sky130_fd_sc_hd__tapvpwrvgnd_1
XPHY_5239 VGND VPWR sky130_fd_sc_hd__tapvpwrvgnd_1
XPHY_3804 VGND VPWR sky130_fd_sc_hd__tapvpwrvgnd_1
XPHY_3815 VGND VPWR sky130_fd_sc_hd__tapvpwrvgnd_1
XPHY_4538 VGND VPWR sky130_fd_sc_hd__tapvpwrvgnd_1
XPHY_4549 VGND VPWR sky130_fd_sc_hd__tapvpwrvgnd_1
XPHY_3826 VGND VPWR sky130_fd_sc_hd__tapvpwrvgnd_1
XPHY_3837 VGND VPWR sky130_fd_sc_hd__tapvpwrvgnd_1
XPHY_3848 VGND VPWR sky130_fd_sc_hd__tapvpwrvgnd_1
XPHY_3859 VGND VPWR sky130_fd_sc_hd__tapvpwrvgnd_1
XPHY_5751 VGND VPWR sky130_fd_sc_hd__tapvpwrvgnd_1
XPHY_5740 VGND VPWR sky130_fd_sc_hd__tapvpwrvgnd_1
XPHY_5762 VGND VPWR sky130_fd_sc_hd__tapvpwrvgnd_1
XPHY_5773 VGND VPWR sky130_fd_sc_hd__tapvpwrvgnd_1
XPHY_5784 VGND VPWR sky130_fd_sc_hd__tapvpwrvgnd_1
XPHY_5795 VGND VPWR sky130_fd_sc_hd__tapvpwrvgnd_1
XPHY_160 VGND VPWR sky130_fd_sc_hd__decap_3
XPHY_171 VGND VPWR sky130_fd_sc_hd__decap_3
XPHY_182 VGND VPWR sky130_fd_sc_hd__decap_3
XPHY_193 VGND VPWR sky130_fd_sc_hd__decap_3
Xmem_left_track_9.sc_dff_compact_4_.sky130_fd_sc_hd__dfrbp_1 mem_left_track_9.sc_dff_compact_4_.sky130_fd_sc_hd__dfrbp_1/D
+ mem_left_track_9.sc_dff_compact_4_.sky130_fd_sc_hd__dfrbp_1/Q mem_left_track_9.sc_dff_compact_4_.sky130_fd_sc_hd__dfrbp_1/Q_N
+ mem_left_track_9.sc_dff_compact_4_.sky130_fd_sc_hd__dfrbp_1/RESET_B mem_left_track_9.sc_dff_compact_4_.sky130_fd_sc_hd__dfrbp_1/CLK
+ VGND VPWR sky130_fd_sc_hd__dfrbp_1
XPHY_1709 VGND VPWR sky130_fd_sc_hd__tapvpwrvgnd_1
XPHY_5003 VGND VPWR sky130_fd_sc_hd__tapvpwrvgnd_1
XPHY_4302 VGND VPWR sky130_fd_sc_hd__tapvpwrvgnd_1
XPHY_5025 VGND VPWR sky130_fd_sc_hd__tapvpwrvgnd_1
XPHY_5036 VGND VPWR sky130_fd_sc_hd__tapvpwrvgnd_1
XPHY_5014 VGND VPWR sky130_fd_sc_hd__tapvpwrvgnd_1
XPHY_4313 VGND VPWR sky130_fd_sc_hd__tapvpwrvgnd_1
XPHY_4324 VGND VPWR sky130_fd_sc_hd__tapvpwrvgnd_1
XPHY_4335 VGND VPWR sky130_fd_sc_hd__tapvpwrvgnd_1
XPHY_5069 VGND VPWR sky130_fd_sc_hd__tapvpwrvgnd_1
XPHY_5047 VGND VPWR sky130_fd_sc_hd__tapvpwrvgnd_1
XPHY_5058 VGND VPWR sky130_fd_sc_hd__tapvpwrvgnd_1
XPHY_3612 VGND VPWR sky130_fd_sc_hd__tapvpwrvgnd_1
XPHY_3623 VGND VPWR sky130_fd_sc_hd__tapvpwrvgnd_1
XPHY_3601 VGND VPWR sky130_fd_sc_hd__tapvpwrvgnd_1
XPHY_4346 VGND VPWR sky130_fd_sc_hd__tapvpwrvgnd_1
XPHY_4357 VGND VPWR sky130_fd_sc_hd__tapvpwrvgnd_1
XPHY_4368 VGND VPWR sky130_fd_sc_hd__tapvpwrvgnd_1
XPHY_2900 VGND VPWR sky130_fd_sc_hd__tapvpwrvgnd_1
XPHY_2911 VGND VPWR sky130_fd_sc_hd__tapvpwrvgnd_1
XPHY_2922 VGND VPWR sky130_fd_sc_hd__tapvpwrvgnd_1
XPHY_3634 VGND VPWR sky130_fd_sc_hd__tapvpwrvgnd_1
XPHY_3667 VGND VPWR sky130_fd_sc_hd__tapvpwrvgnd_1
XPHY_3645 VGND VPWR sky130_fd_sc_hd__tapvpwrvgnd_1
XPHY_3656 VGND VPWR sky130_fd_sc_hd__tapvpwrvgnd_1
XPHY_4379 VGND VPWR sky130_fd_sc_hd__tapvpwrvgnd_1
XPHY_2933 VGND VPWR sky130_fd_sc_hd__tapvpwrvgnd_1
XPHY_2944 VGND VPWR sky130_fd_sc_hd__tapvpwrvgnd_1
XPHY_2955 VGND VPWR sky130_fd_sc_hd__tapvpwrvgnd_1
XPHY_3678 VGND VPWR sky130_fd_sc_hd__tapvpwrvgnd_1
XPHY_3689 VGND VPWR sky130_fd_sc_hd__tapvpwrvgnd_1
XPHY_2977 VGND VPWR sky130_fd_sc_hd__tapvpwrvgnd_1
XPHY_2988 VGND VPWR sky130_fd_sc_hd__tapvpwrvgnd_1
XPHY_2966 VGND VPWR sky130_fd_sc_hd__tapvpwrvgnd_1
XPHY_2999 VGND VPWR sky130_fd_sc_hd__tapvpwrvgnd_1
XPHY_5592 VGND VPWR sky130_fd_sc_hd__tapvpwrvgnd_1
XPHY_5570 VGND VPWR sky130_fd_sc_hd__tapvpwrvgnd_1
XPHY_5581 VGND VPWR sky130_fd_sc_hd__tapvpwrvgnd_1
XPHY_4880 VGND VPWR sky130_fd_sc_hd__tapvpwrvgnd_1
XPHY_4891 VGND VPWR sky130_fd_sc_hd__tapvpwrvgnd_1
XPHY_918 VGND VPWR sky130_fd_sc_hd__tapvpwrvgnd_1
XPHY_907 VGND VPWR sky130_fd_sc_hd__tapvpwrvgnd_1
XPHY_2207 VGND VPWR sky130_fd_sc_hd__tapvpwrvgnd_1
XPHY_1506 VGND VPWR sky130_fd_sc_hd__tapvpwrvgnd_1
XPHY_929 VGND VPWR sky130_fd_sc_hd__tapvpwrvgnd_1
XPHY_2218 VGND VPWR sky130_fd_sc_hd__tapvpwrvgnd_1
XPHY_2229 VGND VPWR sky130_fd_sc_hd__tapvpwrvgnd_1
XPHY_1517 VGND VPWR sky130_fd_sc_hd__tapvpwrvgnd_1
XPHY_1539 VGND VPWR sky130_fd_sc_hd__tapvpwrvgnd_1
XPHY_1528 VGND VPWR sky130_fd_sc_hd__tapvpwrvgnd_1
Xmem_right_track_8.sc_dff_compact_1_.sky130_fd_sc_hd__dfrbp_1 mem_right_track_8.sc_dff_compact_1_.sky130_fd_sc_hd__dfrbp_1/D
+ mem_right_track_8.sc_dff_compact_1_.sky130_fd_sc_hd__dfrbp_1/Q mem_right_track_8.sc_dff_compact_1_.sky130_fd_sc_hd__dfrbp_1/Q_N
+ mem_right_track_8.sc_dff_compact_1_.sky130_fd_sc_hd__dfrbp_1/RESET_B mem_right_track_8.sc_dff_compact_1_.sky130_fd_sc_hd__dfrbp_1/CLK
+ VGND VPWR sky130_fd_sc_hd__dfrbp_1
XPHY_4110 VGND VPWR sky130_fd_sc_hd__tapvpwrvgnd_1
XPHY_4121 VGND VPWR sky130_fd_sc_hd__tapvpwrvgnd_1
XPHY_4132 VGND VPWR sky130_fd_sc_hd__tapvpwrvgnd_1
XPHY_4143 VGND VPWR sky130_fd_sc_hd__tapvpwrvgnd_1
XPHY_3431 VGND VPWR sky130_fd_sc_hd__tapvpwrvgnd_1
XPHY_3420 VGND VPWR sky130_fd_sc_hd__tapvpwrvgnd_1
XPHY_4176 VGND VPWR sky130_fd_sc_hd__tapvpwrvgnd_1
XPHY_4154 VGND VPWR sky130_fd_sc_hd__tapvpwrvgnd_1
XPHY_4165 VGND VPWR sky130_fd_sc_hd__tapvpwrvgnd_1
XPHY_2730 VGND VPWR sky130_fd_sc_hd__tapvpwrvgnd_1
XPHY_3453 VGND VPWR sky130_fd_sc_hd__tapvpwrvgnd_1
XPHY_3464 VGND VPWR sky130_fd_sc_hd__tapvpwrvgnd_1
XPHY_3442 VGND VPWR sky130_fd_sc_hd__tapvpwrvgnd_1
XPHY_3475 VGND VPWR sky130_fd_sc_hd__tapvpwrvgnd_1
XPHY_4187 VGND VPWR sky130_fd_sc_hd__tapvpwrvgnd_1
XPHY_4198 VGND VPWR sky130_fd_sc_hd__tapvpwrvgnd_1
XPHY_2741 VGND VPWR sky130_fd_sc_hd__tapvpwrvgnd_1
XPHY_2752 VGND VPWR sky130_fd_sc_hd__tapvpwrvgnd_1
XPHY_2763 VGND VPWR sky130_fd_sc_hd__tapvpwrvgnd_1
XPHY_3497 VGND VPWR sky130_fd_sc_hd__tapvpwrvgnd_1
XPHY_3486 VGND VPWR sky130_fd_sc_hd__tapvpwrvgnd_1
XPHY_2774 VGND VPWR sky130_fd_sc_hd__tapvpwrvgnd_1
XPHY_2785 VGND VPWR sky130_fd_sc_hd__tapvpwrvgnd_1
XPHY_2796 VGND VPWR sky130_fd_sc_hd__tapvpwrvgnd_1
XPHY_6090 VGND VPWR sky130_fd_sc_hd__tapvpwrvgnd_1
XPHY_726 VGND VPWR sky130_fd_sc_hd__tapvpwrvgnd_1
XPHY_704 VGND VPWR sky130_fd_sc_hd__tapvpwrvgnd_1
XPHY_715 VGND VPWR sky130_fd_sc_hd__tapvpwrvgnd_1
XPHY_2015 VGND VPWR sky130_fd_sc_hd__tapvpwrvgnd_1
XPHY_2026 VGND VPWR sky130_fd_sc_hd__tapvpwrvgnd_1
XPHY_2004 VGND VPWR sky130_fd_sc_hd__tapvpwrvgnd_1
XPHY_1314 VGND VPWR sky130_fd_sc_hd__tapvpwrvgnd_1
XPHY_1303 VGND VPWR sky130_fd_sc_hd__tapvpwrvgnd_1
XPHY_737 VGND VPWR sky130_fd_sc_hd__tapvpwrvgnd_1
XPHY_748 VGND VPWR sky130_fd_sc_hd__tapvpwrvgnd_1
XPHY_759 VGND VPWR sky130_fd_sc_hd__tapvpwrvgnd_1
XPHY_2059 VGND VPWR sky130_fd_sc_hd__tapvpwrvgnd_1
XPHY_2037 VGND VPWR sky130_fd_sc_hd__tapvpwrvgnd_1
XPHY_2048 VGND VPWR sky130_fd_sc_hd__tapvpwrvgnd_1
XPHY_1325 VGND VPWR sky130_fd_sc_hd__tapvpwrvgnd_1
XPHY_1347 VGND VPWR sky130_fd_sc_hd__tapvpwrvgnd_1
XPHY_1336 VGND VPWR sky130_fd_sc_hd__tapvpwrvgnd_1
XPHY_1369 VGND VPWR sky130_fd_sc_hd__tapvpwrvgnd_1
XPHY_1358 VGND VPWR sky130_fd_sc_hd__tapvpwrvgnd_1
XPHY_3250 VGND VPWR sky130_fd_sc_hd__tapvpwrvgnd_1
XPHY_3261 VGND VPWR sky130_fd_sc_hd__tapvpwrvgnd_1
XPHY_3272 VGND VPWR sky130_fd_sc_hd__tapvpwrvgnd_1
XPHY_3283 VGND VPWR sky130_fd_sc_hd__tapvpwrvgnd_1
XPHY_2560 VGND VPWR sky130_fd_sc_hd__tapvpwrvgnd_1
XPHY_2571 VGND VPWR sky130_fd_sc_hd__tapvpwrvgnd_1
XPHY_3294 VGND VPWR sky130_fd_sc_hd__tapvpwrvgnd_1
XPHY_1870 VGND VPWR sky130_fd_sc_hd__tapvpwrvgnd_1
XPHY_2582 VGND VPWR sky130_fd_sc_hd__tapvpwrvgnd_1
XPHY_2593 VGND VPWR sky130_fd_sc_hd__tapvpwrvgnd_1
XPHY_1881 VGND VPWR sky130_fd_sc_hd__tapvpwrvgnd_1
XPHY_1892 VGND VPWR sky130_fd_sc_hd__tapvpwrvgnd_1
XPHY_501 VGND VPWR sky130_fd_sc_hd__tapvpwrvgnd_1
XPHY_523 VGND VPWR sky130_fd_sc_hd__tapvpwrvgnd_1
XPHY_512 VGND VPWR sky130_fd_sc_hd__tapvpwrvgnd_1
XPHY_534 VGND VPWR sky130_fd_sc_hd__tapvpwrvgnd_1
XPHY_1111 VGND VPWR sky130_fd_sc_hd__tapvpwrvgnd_1
XPHY_1100 VGND VPWR sky130_fd_sc_hd__tapvpwrvgnd_1
XPHY_1122 VGND VPWR sky130_fd_sc_hd__tapvpwrvgnd_1
XPHY_545 VGND VPWR sky130_fd_sc_hd__tapvpwrvgnd_1
XPHY_567 VGND VPWR sky130_fd_sc_hd__tapvpwrvgnd_1
XPHY_556 VGND VPWR sky130_fd_sc_hd__tapvpwrvgnd_1
XPHY_578 VGND VPWR sky130_fd_sc_hd__tapvpwrvgnd_1
XPHY_1155 VGND VPWR sky130_fd_sc_hd__tapvpwrvgnd_1
XPHY_1144 VGND VPWR sky130_fd_sc_hd__tapvpwrvgnd_1
XPHY_1166 VGND VPWR sky130_fd_sc_hd__tapvpwrvgnd_1
XPHY_1133 VGND VPWR sky130_fd_sc_hd__tapvpwrvgnd_1
XPHY_589 VGND VPWR sky130_fd_sc_hd__tapvpwrvgnd_1
XPHY_1199 VGND VPWR sky130_fd_sc_hd__tapvpwrvgnd_1
XPHY_1188 VGND VPWR sky130_fd_sc_hd__tapvpwrvgnd_1
XPHY_1177 VGND VPWR sky130_fd_sc_hd__tapvpwrvgnd_1
XPHY_3080 VGND VPWR sky130_fd_sc_hd__tapvpwrvgnd_1
XPHY_3091 VGND VPWR sky130_fd_sc_hd__tapvpwrvgnd_1
XPHY_2390 VGND VPWR sky130_fd_sc_hd__tapvpwrvgnd_1
Xmem_left_track_1.sc_dff_compact_1_.sky130_fd_sc_hd__dfrbp_1 mem_left_track_1.sc_dff_compact_1_.sky130_fd_sc_hd__dfrbp_1/D
+ mem_left_track_1.sc_dff_compact_1_.sky130_fd_sc_hd__dfrbp_1/Q mem_left_track_1.sc_dff_compact_1_.sky130_fd_sc_hd__dfrbp_1/Q_N
+ mem_left_track_1.sc_dff_compact_1_.sky130_fd_sc_hd__dfrbp_1/RESET_B mem_left_track_1.sc_dff_compact_1_.sky130_fd_sc_hd__dfrbp_1/CLK
+ VGND VPWR sky130_fd_sc_hd__dfrbp_1
XPHY_4709 VGND VPWR sky130_fd_sc_hd__tapvpwrvgnd_1