* NGSPICE file created from cby_0__1_.ext - technology: sky130A

* Black-box entry subcircuit for sky130_fd_sc_hd__fill_2 abstract view
.subckt sky130_fd_sc_hd__fill_2 VGND VPWR
.ends

* Black-box entry subcircuit for sky130_fd_sc_hd__dfrbp_1 abstract view
.subckt sky130_fd_sc_hd__dfrbp_1 D Q Q_N RESET_B CLK VGND VPWR
.ends

* Black-box entry subcircuit for sky130_fd_sc_hd__decap_8 abstract view
.subckt sky130_fd_sc_hd__decap_8 VGND VPWR
.ends

* Black-box entry subcircuit for sky130_fd_sc_hd__decap_12 abstract view
.subckt sky130_fd_sc_hd__decap_12 VGND VPWR
.ends

* Black-box entry subcircuit for sky130_fd_sc_hd__diode_2 abstract view
.subckt sky130_fd_sc_hd__diode_2 DIODE VGND VPWR
.ends

* Black-box entry subcircuit for sky130_fd_sc_hd__fill_1 abstract view
.subckt sky130_fd_sc_hd__fill_1 VGND VPWR
.ends

* Black-box entry subcircuit for sky130_fd_sc_hd__decap_4 abstract view
.subckt sky130_fd_sc_hd__decap_4 VGND VPWR
.ends

* Black-box entry subcircuit for sky130_fd_sc_hd__decap_3 abstract view
.subckt sky130_fd_sc_hd__decap_3 VGND VPWR
.ends

* Black-box entry subcircuit for sky130_fd_sc_hd__clkbuf_1 abstract view
.subckt sky130_fd_sc_hd__clkbuf_1 A X VGND VPWR
.ends

* Black-box entry subcircuit for sky130_fd_sc_hd__decap_6 abstract view
.subckt sky130_fd_sc_hd__decap_6 VGND VPWR
.ends

* Black-box entry subcircuit for sky130_fd_sc_hd__tapvpwrvgnd_1 abstract view
.subckt sky130_fd_sc_hd__tapvpwrvgnd_1 VGND VPWR
.ends

* Black-box entry subcircuit for sky130_fd_sc_hd__buf_2 abstract view
.subckt sky130_fd_sc_hd__buf_2 A X VGND VPWR
.ends

* Black-box entry subcircuit for sky130_fd_sc_hd__conb_1 abstract view
.subckt sky130_fd_sc_hd__conb_1 HI LO VGND VPWR
.ends

* Black-box entry subcircuit for sky130_fd_sc_hd__clkbuf_16 abstract view
.subckt sky130_fd_sc_hd__clkbuf_16 A X VGND VPWR
.ends

.subckt cby_0__1_ ccff_head ccff_tail chany_in_0_ chany_in_10_ chany_in_11_ chany_in_12_
+ chany_in_13_ chany_in_14_ chany_in_15_ chany_in_16_ chany_in_17_ chany_in_1_ chany_in_2_
+ chany_in_3_ chany_in_4_ chany_in_5_ chany_in_6_ chany_in_7_ chany_in_8_ chany_in_9_
+ chany_out_0_ chany_out_10_ chany_out_11_ chany_out_12_ chany_out_13_ chany_out_14_
+ chany_out_15_ chany_out_16_ chany_out_17_ chany_out_1_ chany_out_2_ chany_out_3_
+ chany_out_4_ chany_out_5_ chany_out_6_ chany_out_7_ chany_out_8_ chany_out_9_ left_grid_pin_0_
+ left_grid_pin_10_ left_grid_pin_12_ left_grid_pin_14_ left_grid_pin_2_ left_grid_pin_4_
+ left_grid_pin_6_ left_grid_pin_8_ pReset prog_clk right_grid_pin_3_ right_grid_pin_7_
+ VPWR VGND
XFILLER_13_188 VGND VPWR sky130_fd_sc_hd__fill_2
Xmem_right_ipin_7.sc_dff_compact_2_.sky130_fd_sc_hd__dfrbp_1 mem_right_ipin_7.sc_dff_compact_2_.sky130_fd_sc_hd__dfrbp_1/D
+ mem_right_ipin_7.sc_dff_compact_2_.sky130_fd_sc_hd__dfrbp_1/Q mem_right_ipin_7.sc_dff_compact_2_.sky130_fd_sc_hd__dfrbp_1/Q_N
+ pReset clkbuf_2_1_0_prog_clk/X VGND VPWR sky130_fd_sc_hd__dfrbp_1
XFILLER_9_137 VGND VPWR sky130_fd_sc_hd__fill_2
XFILLER_5_354 VGND VPWR sky130_fd_sc_hd__decap_8
XFILLER_3_89 VGND VPWR sky130_fd_sc_hd__fill_2
XFILLER_8_181 VGND VPWR sky130_fd_sc_hd__decap_12
XANTENNA_mem_right_ipin_7.sc_dff_compact_3_.sky130_fd_sc_hd__dfrbp_1_D mem_right_ipin_7.sc_dff_compact_2_.sky130_fd_sc_hd__dfrbp_1/Q
+ VGND VPWR sky130_fd_sc_hd__diode_2
XFILLER_12_76 VGND VPWR sky130_fd_sc_hd__decap_8
XFILLER_12_32 VGND VPWR sky130_fd_sc_hd__fill_2
Xmem_right_ipin_4.sc_dff_compact_3_.sky130_fd_sc_hd__dfrbp_1 mem_right_ipin_4.sc_dff_compact_2_.sky130_fd_sc_hd__dfrbp_1/Q
+ mem_right_ipin_4.sc_dff_compact_4_.sky130_fd_sc_hd__dfrbp_1/D mem_right_ipin_4.sc_dff_compact_3_.sky130_fd_sc_hd__dfrbp_1/Q_N
+ pReset clkbuf_2_3_0_prog_clk/X VGND VPWR sky130_fd_sc_hd__dfrbp_1
XFILLER_10_158 VGND VPWR sky130_fd_sc_hd__fill_1
XFILLER_6_118 VGND VPWR sky130_fd_sc_hd__decap_12
XFILLER_2_324 VGND VPWR sky130_fd_sc_hd__decap_12
XFILLER_17_280 VGND VPWR sky130_fd_sc_hd__decap_12
XFILLER_5_184 VGND VPWR sky130_fd_sc_hd__decap_12
Xmem_right_ipin_1.sc_dff_compact_4_.sky130_fd_sc_hd__dfrbp_1 mem_right_ipin_1.sc_dff_compact_4_.sky130_fd_sc_hd__dfrbp_1/D
+ mem_right_ipin_1.sc_dff_compact_4_.sky130_fd_sc_hd__dfrbp_1/Q mem_right_ipin_1.sc_dff_compact_4_.sky130_fd_sc_hd__dfrbp_1/Q_N
+ pReset clkbuf_2_1_0_prog_clk/X VGND VPWR sky130_fd_sc_hd__dfrbp_1
XFILLER_9_66 VGND VPWR sky130_fd_sc_hd__fill_2
XFILLER_2_154 VGND VPWR sky130_fd_sc_hd__decap_12
XANTENNA_clkbuf_2_1_0_prog_clk_A clkbuf_2_1_0_prog_clk/A VGND VPWR sky130_fd_sc_hd__diode_2
XFILLER_11_242 VGND VPWR sky130_fd_sc_hd__fill_2
XFILLER_7_224 VGND VPWR sky130_fd_sc_hd__fill_2
XFILLER_13_3 VGND VPWR sky130_fd_sc_hd__decap_12
XFILLER_6_56 VGND VPWR sky130_fd_sc_hd__decap_12
XFILLER_6_23 VGND VPWR sky130_fd_sc_hd__fill_1
XFILLER_3_282 VGND VPWR sky130_fd_sc_hd__decap_12
XFILLER_15_32 VGND VPWR sky130_fd_sc_hd__decap_4
XFILLER_15_21 VGND VPWR sky130_fd_sc_hd__decap_3
XFILLER_13_123 VGND VPWR sky130_fd_sc_hd__decap_4
XFILLER_8_193 VGND VPWR sky130_fd_sc_hd__decap_12
XFILLER_12_22 VGND VPWR sky130_fd_sc_hd__decap_4
XFILLER_17_292 VGND VPWR sky130_fd_sc_hd__decap_12
XFILLER_5_196 VGND VPWR sky130_fd_sc_hd__decap_12
XFILLER_15_207 VGND VPWR sky130_fd_sc_hd__fill_2
XANTENNA_mem_right_ipin_0.sc_dff_compact_4_.sky130_fd_sc_hd__dfrbp_1_RESET_B pReset
+ VGND VPWR sky130_fd_sc_hd__diode_2
XFILLER_2_166 VGND VPWR sky130_fd_sc_hd__decap_12
XFILLER_11_232 VGND VPWR sky130_fd_sc_hd__fill_2
XFILLER_7_236 VGND VPWR sky130_fd_sc_hd__decap_4
XANTENNA_mem_right_ipin_2.sc_dff_compact_5_.sky130_fd_sc_hd__dfrbp_1_RESET_B pReset
+ VGND VPWR sky130_fd_sc_hd__diode_2
XFILLER_4_206 VGND VPWR sky130_fd_sc_hd__decap_8
XFILLER_16_324 VGND VPWR sky130_fd_sc_hd__fill_1
XFILLER_6_68 VGND VPWR sky130_fd_sc_hd__decap_8
XFILLER_3_294 VGND VPWR sky130_fd_sc_hd__decap_8
XFILLER_15_44 VGND VPWR sky130_fd_sc_hd__fill_2
XFILLER_16_154 VGND VPWR sky130_fd_sc_hd__decap_12
XFILLER_15_99 VGND VPWR sky130_fd_sc_hd__fill_2
XFILLER_5_301 VGND VPWR sky130_fd_sc_hd__decap_4
XANTENNA_mem_right_ipin_0.sc_dff_compact_4_.sky130_fd_sc_hd__dfrbp_1_CLK clkbuf_2_0_0_prog_clk/X
+ VGND VPWR sky130_fd_sc_hd__diode_2
XFILLER_3_47 VGND VPWR sky130_fd_sc_hd__fill_2
XFILLER_12_89 VGND VPWR sky130_fd_sc_hd__decap_3
XFILLER_10_138 VGND VPWR sky130_fd_sc_hd__fill_1
XFILLER_2_337 VGND VPWR sky130_fd_sc_hd__fill_2
XANTENNA_mem_right_ipin_1.sc_dff_compact_5_.sky130_fd_sc_hd__dfrbp_1_CLK clkbuf_2_0_0_prog_clk/X
+ VGND VPWR sky130_fd_sc_hd__diode_2
Xmem_right_ipin_6.sc_dff_compact_1_.sky130_fd_sc_hd__dfrbp_1 mem_right_ipin_6.sc_dff_compact_1_.sky130_fd_sc_hd__dfrbp_1/D
+ mem_right_ipin_6.sc_dff_compact_1_.sky130_fd_sc_hd__dfrbp_1/Q mem_right_ipin_6.sc_dff_compact_1_.sky130_fd_sc_hd__dfrbp_1/Q_N
+ pReset clkbuf_2_2_0_prog_clk/X VGND VPWR sky130_fd_sc_hd__dfrbp_1
XFILLER_4_90 VGND VPWR sky130_fd_sc_hd__fill_2
XFILLER_9_13 VGND VPWR sky130_fd_sc_hd__fill_2
XFILLER_0_37 VGND VPWR sky130_fd_sc_hd__decap_12
XFILLER_0_15 VGND VPWR sky130_fd_sc_hd__fill_2
XFILLER_2_145 VGND VPWR sky130_fd_sc_hd__decap_8
XFILLER_2_178 VGND VPWR sky130_fd_sc_hd__decap_8
XFILLER_2_189 VGND VPWR sky130_fd_sc_hd__fill_2
XFILLER_3_3 VGND VPWR sky130_fd_sc_hd__decap_12
Xmem_left_ipin_0.sc_dff_compact_2_.sky130_fd_sc_hd__dfrbp_1 mem_left_ipin_0.sc_dff_compact_2_.sky130_fd_sc_hd__dfrbp_1/D
+ mem_left_ipin_0.sc_dff_compact_2_.sky130_fd_sc_hd__dfrbp_1/Q mem_left_ipin_0.sc_dff_compact_2_.sky130_fd_sc_hd__dfrbp_1/Q_N
+ pReset clkbuf_2_0_0_prog_clk/X VGND VPWR sky130_fd_sc_hd__dfrbp_1
Xmem_right_ipin_3.sc_dff_compact_2_.sky130_fd_sc_hd__dfrbp_1 mem_right_ipin_3.sc_dff_compact_1_.sky130_fd_sc_hd__dfrbp_1/Q
+ mem_right_ipin_3.sc_dff_compact_2_.sky130_fd_sc_hd__dfrbp_1/Q mem_right_ipin_3.sc_dff_compact_2_.sky130_fd_sc_hd__dfrbp_1/Q_N
+ pReset clkbuf_2_3_0_prog_clk/X VGND VPWR sky130_fd_sc_hd__dfrbp_1
Xmem_right_ipin_0.sc_dff_compact_3_.sky130_fd_sc_hd__dfrbp_1 mem_right_ipin_0.sc_dff_compact_2_.sky130_fd_sc_hd__dfrbp_1/Q
+ mem_right_ipin_0.sc_dff_compact_3_.sky130_fd_sc_hd__dfrbp_1/Q mem_right_ipin_0.sc_dff_compact_3_.sky130_fd_sc_hd__dfrbp_1/Q_N
+ pReset clkbuf_2_1_0_prog_clk/X VGND VPWR sky130_fd_sc_hd__dfrbp_1
XANTENNA_clkbuf_1_0_0_prog_clk_A clkbuf_0_prog_clk/X VGND VPWR sky130_fd_sc_hd__diode_2
XFILLER_16_166 VGND VPWR sky130_fd_sc_hd__decap_12
XFILLER_16_122 VGND VPWR sky130_fd_sc_hd__fill_1
XFILLER_15_56 VGND VPWR sky130_fd_sc_hd__decap_4
XFILLER_13_339 VGND VPWR sky130_fd_sc_hd__decap_12
XFILLER_13_306 VGND VPWR sky130_fd_sc_hd__decap_12
XFILLER_12_361 VGND VPWR sky130_fd_sc_hd__decap_4
Xclkbuf_2_1_0_prog_clk clkbuf_2_1_0_prog_clk/A clkbuf_2_1_0_prog_clk/X VGND VPWR sky130_fd_sc_hd__clkbuf_1
XFILLER_13_114 VGND VPWR sky130_fd_sc_hd__fill_2
XFILLER_9_107 VGND VPWR sky130_fd_sc_hd__fill_2
XFILLER_8_151 VGND VPWR sky130_fd_sc_hd__fill_2
XFILLER_3_15 VGND VPWR sky130_fd_sc_hd__fill_1
XFILLER_3_59 VGND VPWR sky130_fd_sc_hd__fill_2
XFILLER_12_57 VGND VPWR sky130_fd_sc_hd__decap_4
XFILLER_5_121 VGND VPWR sky130_fd_sc_hd__fill_1
XFILLER_5_143 VGND VPWR sky130_fd_sc_hd__fill_2
XFILLER_17_261 VGND VPWR sky130_fd_sc_hd__decap_12
XANTENNA_mem_right_ipin_1.sc_dff_compact_5_.sky130_fd_sc_hd__dfrbp_1_RESET_B pReset
+ VGND VPWR sky130_fd_sc_hd__diode_2
XANTENNA__12__A chany_in_11_ VGND VPWR sky130_fd_sc_hd__diode_2
XFILLER_0_49 VGND VPWR sky130_fd_sc_hd__decap_12
XFILLER_2_113 VGND VPWR sky130_fd_sc_hd__fill_1
XFILLER_11_212 VGND VPWR sky130_fd_sc_hd__decap_12
XANTENNA_mem_right_ipin_4.sc_dff_compact_0_.sky130_fd_sc_hd__dfrbp_1_CLK clkbuf_2_3_0_prog_clk/X
+ VGND VPWR sky130_fd_sc_hd__diode_2
XFILLER_11_245 VGND VPWR sky130_fd_sc_hd__fill_2
XANTENNA_mem_right_ipin_5.sc_dff_compact_1_.sky130_fd_sc_hd__dfrbp_1_CLK clkbuf_2_2_0_prog_clk/X
+ VGND VPWR sky130_fd_sc_hd__diode_2
XANTENNA_mem_right_ipin_6.sc_dff_compact_2_.sky130_fd_sc_hd__dfrbp_1_CLK clkbuf_2_2_0_prog_clk/X
+ VGND VPWR sky130_fd_sc_hd__diode_2
XFILLER_16_337 VGND VPWR sky130_fd_sc_hd__fill_2
XANTENNA_mem_right_ipin_7.sc_dff_compact_3_.sky130_fd_sc_hd__dfrbp_1_CLK clkbuf_2_1_0_prog_clk/X
+ VGND VPWR sky130_fd_sc_hd__diode_2
XFILLER_6_26 VGND VPWR sky130_fd_sc_hd__decap_4
XFILLER_6_15 VGND VPWR sky130_fd_sc_hd__decap_8
XFILLER_3_230 VGND VPWR sky130_fd_sc_hd__fill_2
XFILLER_13_329 VGND VPWR sky130_fd_sc_hd__fill_2
XFILLER_13_318 VGND VPWR sky130_fd_sc_hd__decap_6
XFILLER_0_222 VGND VPWR sky130_fd_sc_hd__fill_2
XANTENNA__20__A chany_in_2_ VGND VPWR sky130_fd_sc_hd__diode_2
XPHY_140 VGND VPWR sky130_fd_sc_hd__tapvpwrvgnd_1
XFILLER_16_178 VGND VPWR sky130_fd_sc_hd__decap_12
XFILLER_11_3 VGND VPWR sky130_fd_sc_hd__decap_6
XFILLER_8_300 VGND VPWR sky130_fd_sc_hd__decap_12
XFILLER_13_104 VGND VPWR sky130_fd_sc_hd__fill_2
XFILLER_7_80 VGND VPWR sky130_fd_sc_hd__fill_2
XANTENNA_mem_left_ipin_0.sc_dff_compact_3_.sky130_fd_sc_hd__dfrbp_1_CLK clkbuf_2_0_0_prog_clk/X
+ VGND VPWR sky130_fd_sc_hd__diode_2
XANTENNA__15__A chany_in_14_ VGND VPWR sky130_fd_sc_hd__diode_2
XFILLER_9_119 VGND VPWR sky130_fd_sc_hd__decap_3
Xmem_right_ipin_7.sc_dff_compact_5_.sky130_fd_sc_hd__dfrbp_1 mem_right_ipin_7.sc_dff_compact_5_.sky130_fd_sc_hd__dfrbp_1/D
+ ccff_tail mem_right_ipin_7.sc_dff_compact_5_.sky130_fd_sc_hd__dfrbp_1/Q_N pReset
+ clkbuf_2_1_0_prog_clk/X VGND VPWR sky130_fd_sc_hd__dfrbp_1
XFILLER_8_130 VGND VPWR sky130_fd_sc_hd__fill_1
XFILLER_17_273 VGND VPWR sky130_fd_sc_hd__decap_6
XFILLER_17_240 VGND VPWR sky130_fd_sc_hd__decap_8
XFILLER_4_81 VGND VPWR sky130_fd_sc_hd__decap_3
XFILLER_14_276 VGND VPWR sky130_fd_sc_hd__decap_12
XFILLER_9_59 VGND VPWR sky130_fd_sc_hd__fill_2
Xmem_right_ipin_5.sc_dff_compact_0_.sky130_fd_sc_hd__dfrbp_1 mem_right_ipin_4.sc_dff_compact_5_.sky130_fd_sc_hd__dfrbp_1/Q
+ mem_right_ipin_5.sc_dff_compact_0_.sky130_fd_sc_hd__dfrbp_1/Q mem_right_ipin_5.sc_dff_compact_0_.sky130_fd_sc_hd__dfrbp_1/Q_N
+ pReset clkbuf_2_2_0_prog_clk/X VGND VPWR sky130_fd_sc_hd__dfrbp_1
XANTENNA__23__A chany_in_5_ VGND VPWR sky130_fd_sc_hd__diode_2
XFILLER_11_224 VGND VPWR sky130_fd_sc_hd__fill_2
XFILLER_7_228 VGND VPWR sky130_fd_sc_hd__fill_2
XFILLER_1_60 VGND VPWR sky130_fd_sc_hd__fill_1
Xmem_right_ipin_2.sc_dff_compact_1_.sky130_fd_sc_hd__dfrbp_1 mem_right_ipin_2.sc_dff_compact_1_.sky130_fd_sc_hd__dfrbp_1/D
+ mem_right_ipin_2.sc_dff_compact_1_.sky130_fd_sc_hd__dfrbp_1/Q mem_right_ipin_2.sc_dff_compact_1_.sky130_fd_sc_hd__dfrbp_1/Q_N
+ pReset clkbuf_2_0_0_prog_clk/X VGND VPWR sky130_fd_sc_hd__dfrbp_1
XANTENNA__18__A chany_in_17_ VGND VPWR sky130_fd_sc_hd__diode_2
XFILLER_3_242 VGND VPWR sky130_fd_sc_hd__fill_2
XANTENNA_mem_right_ipin_0.sc_dff_compact_1_.sky130_fd_sc_hd__dfrbp_1_D mem_right_ipin_0.sc_dff_compact_0_.sky130_fd_sc_hd__dfrbp_1/Q
+ VGND VPWR sky130_fd_sc_hd__diode_2
XANTENNA_mem_left_ipin_0.sc_dff_compact_1_.sky130_fd_sc_hd__dfrbp_1_D mem_left_ipin_0.sc_dff_compact_0_.sky130_fd_sc_hd__dfrbp_1/Q
+ VGND VPWR sky130_fd_sc_hd__diode_2
XPHY_141 VGND VPWR sky130_fd_sc_hd__tapvpwrvgnd_1
XPHY_130 VGND VPWR sky130_fd_sc_hd__tapvpwrvgnd_1
XFILLER_8_312 VGND VPWR sky130_fd_sc_hd__decap_12
XFILLER_7_70 VGND VPWR sky130_fd_sc_hd__decap_4
XFILLER_13_127 VGND VPWR sky130_fd_sc_hd__fill_1
XANTENNA_mem_right_ipin_0.sc_dff_compact_5_.sky130_fd_sc_hd__dfrbp_1_RESET_B pReset
+ VGND VPWR sky130_fd_sc_hd__diode_2
XFILLER_12_26 VGND VPWR sky130_fd_sc_hd__fill_1
XFILLER_12_15 VGND VPWR sky130_fd_sc_hd__decap_4
XANTENNA__26__A chany_in_8_ VGND VPWR sky130_fd_sc_hd__diode_2
XFILLER_17_230 VGND VPWR sky130_fd_sc_hd__decap_6
XFILLER_5_123 VGND VPWR sky130_fd_sc_hd__decap_12
XFILLER_4_93 VGND VPWR sky130_fd_sc_hd__fill_2
XFILLER_14_288 VGND VPWR sky130_fd_sc_hd__decap_12
XFILLER_14_255 VGND VPWR sky130_fd_sc_hd__decap_12
XFILLER_14_211 VGND VPWR sky130_fd_sc_hd__decap_3
XFILLER_9_270 VGND VPWR sky130_fd_sc_hd__decap_12
XANTENNA_mem_left_ipin_0.sc_dff_compact_4_.sky130_fd_sc_hd__dfrbp_1_D mem_left_ipin_0.sc_dff_compact_4_.sky130_fd_sc_hd__dfrbp_1/D
+ VGND VPWR sky130_fd_sc_hd__diode_2
XFILLER_11_236 VGND VPWR sky130_fd_sc_hd__decap_4
XANTENNA_mem_right_ipin_0.sc_dff_compact_4_.sky130_fd_sc_hd__dfrbp_1_D mem_right_ipin_0.sc_dff_compact_3_.sky130_fd_sc_hd__dfrbp_1/Q
+ VGND VPWR sky130_fd_sc_hd__diode_2
XFILLER_1_3 VGND VPWR sky130_fd_sc_hd__decap_6
X_27_ chany_in_9_ chany_out_9_ VGND VPWR sky130_fd_sc_hd__buf_2
XFILLER_16_328 VGND VPWR sky130_fd_sc_hd__decap_8
XFILLER_16_306 VGND VPWR sky130_fd_sc_hd__decap_12
XFILLER_3_210 VGND VPWR sky130_fd_sc_hd__decap_12
XFILLER_15_48 VGND VPWR sky130_fd_sc_hd__fill_2
XFILLER_15_15 VGND VPWR sky130_fd_sc_hd__decap_4
XPHY_142 VGND VPWR sky130_fd_sc_hd__tapvpwrvgnd_1
XPHY_131 VGND VPWR sky130_fd_sc_hd__tapvpwrvgnd_1
XFILLER_16_125 VGND VPWR sky130_fd_sc_hd__decap_12
XPHY_120 VGND VPWR sky130_fd_sc_hd__tapvpwrvgnd_1
XFILLER_8_324 VGND VPWR sky130_fd_sc_hd__decap_12
XFILLER_0_246 VGND VPWR sky130_fd_sc_hd__fill_2
XFILLER_15_180 VGND VPWR sky130_fd_sc_hd__decap_3
XPHY_0 VGND VPWR sky130_fd_sc_hd__decap_3
XFILLER_3_18 VGND VPWR sky130_fd_sc_hd__fill_2
XANTENNA_mem_right_ipin_1.sc_dff_compact_2_.sky130_fd_sc_hd__dfrbp_1_D mem_right_ipin_1.sc_dff_compact_2_.sky130_fd_sc_hd__dfrbp_1/D
+ VGND VPWR sky130_fd_sc_hd__diode_2
XFILLER_8_154 VGND VPWR sky130_fd_sc_hd__decap_4
XFILLER_10_109 VGND VPWR sky130_fd_sc_hd__decap_12
Xclkbuf_2_0_0_prog_clk clkbuf_2_1_0_prog_clk/A clkbuf_2_0_0_prog_clk/X VGND VPWR sky130_fd_sc_hd__clkbuf_1
XFILLER_5_113 VGND VPWR sky130_fd_sc_hd__decap_8
XFILLER_5_135 VGND VPWR sky130_fd_sc_hd__decap_6
XFILLER_14_267 VGND VPWR sky130_fd_sc_hd__decap_8
XFILLER_9_17 VGND VPWR sky130_fd_sc_hd__fill_2
Xmem_right_ipin_6.sc_dff_compact_4_.sky130_fd_sc_hd__dfrbp_1 mem_right_ipin_6.sc_dff_compact_4_.sky130_fd_sc_hd__dfrbp_1/D
+ mem_right_ipin_6.sc_dff_compact_5_.sky130_fd_sc_hd__dfrbp_1/D mem_right_ipin_6.sc_dff_compact_4_.sky130_fd_sc_hd__dfrbp_1/Q_N
+ pReset clkbuf_2_2_0_prog_clk/X VGND VPWR sky130_fd_sc_hd__dfrbp_1
XFILLER_0_19 VGND VPWR sky130_fd_sc_hd__decap_12
XFILLER_2_116 VGND VPWR sky130_fd_sc_hd__fill_2
XFILLER_9_282 VGND VPWR sky130_fd_sc_hd__decap_12
Xmem_left_ipin_0.sc_dff_compact_5_.sky130_fd_sc_hd__dfrbp_1 mem_left_ipin_0.sc_dff_compact_4_.sky130_fd_sc_hd__dfrbp_1/Q
+ mem_left_ipin_0.sc_dff_compact_5_.sky130_fd_sc_hd__dfrbp_1/Q mem_left_ipin_0.sc_dff_compact_5_.sky130_fd_sc_hd__dfrbp_1/Q_N
+ pReset clkbuf_2_1_0_prog_clk/X VGND VPWR sky130_fd_sc_hd__dfrbp_1
XFILLER_1_160 VGND VPWR sky130_fd_sc_hd__decap_8
Xmem_right_ipin_3.sc_dff_compact_5_.sky130_fd_sc_hd__dfrbp_1 mem_right_ipin_3.sc_dff_compact_5_.sky130_fd_sc_hd__dfrbp_1/D
+ mem_right_ipin_3.sc_dff_compact_5_.sky130_fd_sc_hd__dfrbp_1/Q mem_right_ipin_3.sc_dff_compact_5_.sky130_fd_sc_hd__dfrbp_1/Q_N
+ pReset clkbuf_2_3_0_prog_clk/X VGND VPWR sky130_fd_sc_hd__dfrbp_1
XFILLER_10_270 VGND VPWR sky130_fd_sc_hd__decap_4
XFILLER_6_274 VGND VPWR sky130_fd_sc_hd__fill_1
XANTENNA_mem_right_ipin_2.sc_dff_compact_0_.sky130_fd_sc_hd__dfrbp_1_D mem_right_ipin_1.sc_dff_compact_5_.sky130_fd_sc_hd__dfrbp_1/Q
+ VGND VPWR sky130_fd_sc_hd__diode_2
XFILLER_1_62 VGND VPWR sky130_fd_sc_hd__decap_12
XFILLER_1_40 VGND VPWR sky130_fd_sc_hd__fill_2
X_26_ chany_in_8_ chany_out_8_ VGND VPWR sky130_fd_sc_hd__buf_2
XFILLER_16_318 VGND VPWR sky130_fd_sc_hd__decap_6
XFILLER_10_93 VGND VPWR sky130_fd_sc_hd__fill_2
XFILLER_10_60 VGND VPWR sky130_fd_sc_hd__fill_1
XFILLER_3_222 VGND VPWR sky130_fd_sc_hd__fill_2
X_09_ _09_/HI right_grid_pin_3_ VGND VPWR sky130_fd_sc_hd__conb_1
XFILLER_15_351 VGND VPWR sky130_fd_sc_hd__decap_12
XANTENNA_mem_right_ipin_0.sc_dff_compact_3_.sky130_fd_sc_hd__dfrbp_1_CLK clkbuf_2_1_0_prog_clk/X
+ VGND VPWR sky130_fd_sc_hd__diode_2
XANTENNA_mem_right_ipin_1.sc_dff_compact_4_.sky130_fd_sc_hd__dfrbp_1_CLK clkbuf_2_1_0_prog_clk/X
+ VGND VPWR sky130_fd_sc_hd__diode_2
XANTENNA_mem_right_ipin_1.sc_dff_compact_5_.sky130_fd_sc_hd__dfrbp_1_D mem_right_ipin_1.sc_dff_compact_4_.sky130_fd_sc_hd__dfrbp_1/Q
+ VGND VPWR sky130_fd_sc_hd__diode_2
XPHY_143 VGND VPWR sky130_fd_sc_hd__tapvpwrvgnd_1
XPHY_132 VGND VPWR sky130_fd_sc_hd__tapvpwrvgnd_1
XFILLER_16_137 VGND VPWR sky130_fd_sc_hd__decap_12
XPHY_121 VGND VPWR sky130_fd_sc_hd__tapvpwrvgnd_1
XPHY_110 VGND VPWR sky130_fd_sc_hd__tapvpwrvgnd_1
Xmem_right_ipin_1.sc_dff_compact_0_.sky130_fd_sc_hd__dfrbp_1 mem_right_ipin_0.sc_dff_compact_5_.sky130_fd_sc_hd__dfrbp_1/Q
+ mem_right_ipin_1.sc_dff_compact_0_.sky130_fd_sc_hd__dfrbp_1/Q mem_right_ipin_1.sc_dff_compact_0_.sky130_fd_sc_hd__dfrbp_1/Q_N
+ pReset clkbuf_2_1_0_prog_clk/X VGND VPWR sky130_fd_sc_hd__dfrbp_1
XANTENNA_mem_right_ipin_2.sc_dff_compact_5_.sky130_fd_sc_hd__dfrbp_1_CLK clkbuf_2_2_0_prog_clk/X
+ VGND VPWR sky130_fd_sc_hd__diode_2
XPHY_1 VGND VPWR sky130_fd_sc_hd__decap_3
XFILLER_13_118 VGND VPWR sky130_fd_sc_hd__decap_4
XFILLER_5_306 VGND VPWR sky130_fd_sc_hd__decap_12
XFILLER_4_361 VGND VPWR sky130_fd_sc_hd__decap_4
XFILLER_1_364 VGND VPWR sky130_fd_sc_hd__fill_1
XFILLER_5_147 VGND VPWR sky130_fd_sc_hd__fill_2
XANTENNA_mem_right_ipin_2.sc_dff_compact_3_.sky130_fd_sc_hd__dfrbp_1_D mem_right_ipin_2.sc_dff_compact_2_.sky130_fd_sc_hd__dfrbp_1/Q
+ VGND VPWR sky130_fd_sc_hd__diode_2
XFILLER_9_294 VGND VPWR sky130_fd_sc_hd__decap_8
XFILLER_1_74 VGND VPWR sky130_fd_sc_hd__decap_12
X_25_ chany_in_7_ chany_out_7_ VGND VPWR sky130_fd_sc_hd__buf_2
XFILLER_3_234 VGND VPWR sky130_fd_sc_hd__fill_2
XFILLER_3_245 VGND VPWR sky130_fd_sc_hd__fill_2
XFILLER_15_363 VGND VPWR sky130_fd_sc_hd__fill_2
XANTENNA_mem_right_ipin_3.sc_dff_compact_1_.sky130_fd_sc_hd__dfrbp_1_D mem_right_ipin_3.sc_dff_compact_1_.sky130_fd_sc_hd__dfrbp_1/D
+ VGND VPWR sky130_fd_sc_hd__diode_2
XANTENNA_clkbuf_2_2_0_prog_clk_A clkbuf_2_3_0_prog_clk/A VGND VPWR sky130_fd_sc_hd__diode_2
X_08_ _08_/HI left_grid_pin_0_ VGND VPWR sky130_fd_sc_hd__conb_1
XFILLER_16_149 VGND VPWR sky130_fd_sc_hd__decap_4
XFILLER_15_28 VGND VPWR sky130_fd_sc_hd__fill_2
XPHY_100 VGND VPWR sky130_fd_sc_hd__tapvpwrvgnd_1
XFILLER_0_226 VGND VPWR sky130_fd_sc_hd__decap_12
XPHY_144 VGND VPWR sky130_fd_sc_hd__tapvpwrvgnd_1
XPHY_133 VGND VPWR sky130_fd_sc_hd__tapvpwrvgnd_1
XFILLER_15_160 VGND VPWR sky130_fd_sc_hd__decap_12
XPHY_122 VGND VPWR sky130_fd_sc_hd__tapvpwrvgnd_1
XFILLER_12_300 VGND VPWR sky130_fd_sc_hd__decap_12
XPHY_111 VGND VPWR sky130_fd_sc_hd__tapvpwrvgnd_1
XFILLER_8_337 VGND VPWR sky130_fd_sc_hd__decap_12
XPHY_2 VGND VPWR sky130_fd_sc_hd__decap_3
XFILLER_13_108 VGND VPWR sky130_fd_sc_hd__fill_2
XFILLER_7_62 VGND VPWR sky130_fd_sc_hd__fill_2
XFILLER_16_93 VGND VPWR sky130_fd_sc_hd__fill_2
XFILLER_5_318 VGND VPWR sky130_fd_sc_hd__decap_12
XFILLER_12_29 VGND VPWR sky130_fd_sc_hd__fill_2
XFILLER_17_211 VGND VPWR sky130_fd_sc_hd__decap_6
XFILLER_4_30 VGND VPWR sky130_fd_sc_hd__fill_1
XANTENNA_mem_right_ipin_5.sc_dff_compact_0_.sky130_fd_sc_hd__dfrbp_1_CLK clkbuf_2_2_0_prog_clk/X
+ VGND VPWR sky130_fd_sc_hd__diode_2
XANTENNA_mem_right_ipin_7.sc_dff_compact_2_.sky130_fd_sc_hd__dfrbp_1_CLK clkbuf_2_1_0_prog_clk/X
+ VGND VPWR sky130_fd_sc_hd__diode_2
XANTENNA_mem_right_ipin_6.sc_dff_compact_1_.sky130_fd_sc_hd__dfrbp_1_CLK clkbuf_2_2_0_prog_clk/X
+ VGND VPWR sky130_fd_sc_hd__diode_2
XFILLER_14_225 VGND VPWR sky130_fd_sc_hd__fill_2
XFILLER_1_184 VGND VPWR sky130_fd_sc_hd__fill_2
XANTENNA_mem_right_ipin_3.sc_dff_compact_4_.sky130_fd_sc_hd__dfrbp_1_D mem_right_ipin_3.sc_dff_compact_4_.sky130_fd_sc_hd__dfrbp_1/D
+ VGND VPWR sky130_fd_sc_hd__diode_2
XFILLER_11_228 VGND VPWR sky130_fd_sc_hd__fill_2
XFILLER_6_276 VGND VPWR sky130_fd_sc_hd__decap_12
XFILLER_1_86 VGND VPWR sky130_fd_sc_hd__decap_12
X_24_ chany_in_6_ chany_out_6_ VGND VPWR sky130_fd_sc_hd__buf_2
XANTENNA_mem_left_ipin_0.sc_dff_compact_2_.sky130_fd_sc_hd__dfrbp_1_CLK clkbuf_2_0_0_prog_clk/X
+ VGND VPWR sky130_fd_sc_hd__diode_2
Xmem_right_ipin_5.sc_dff_compact_3_.sky130_fd_sc_hd__dfrbp_1 mem_right_ipin_5.sc_dff_compact_2_.sky130_fd_sc_hd__dfrbp_1/Q
+ mem_right_ipin_5.sc_dff_compact_3_.sky130_fd_sc_hd__dfrbp_1/Q mem_right_ipin_5.sc_dff_compact_3_.sky130_fd_sc_hd__dfrbp_1/Q_N
+ pReset clkbuf_2_2_0_prog_clk/X VGND VPWR sky130_fd_sc_hd__dfrbp_1
XFILLER_10_40 VGND VPWR sky130_fd_sc_hd__decap_12
XFILLER_10_84 VGND VPWR sky130_fd_sc_hd__fill_2
Xmem_right_ipin_2.sc_dff_compact_4_.sky130_fd_sc_hd__dfrbp_1 mem_right_ipin_2.sc_dff_compact_4_.sky130_fd_sc_hd__dfrbp_1/D
+ mem_right_ipin_2.sc_dff_compact_5_.sky130_fd_sc_hd__dfrbp_1/D mem_right_ipin_2.sc_dff_compact_4_.sky130_fd_sc_hd__dfrbp_1/Q_N
+ pReset clkbuf_2_2_0_prog_clk/X VGND VPWR sky130_fd_sc_hd__dfrbp_1
XFILLER_0_249 VGND VPWR sky130_fd_sc_hd__decap_12
XFILLER_0_238 VGND VPWR sky130_fd_sc_hd__decap_8
XFILLER_0_205 VGND VPWR sky130_fd_sc_hd__decap_12
X_07_ _07_/HI left_grid_pin_10_ VGND VPWR sky130_fd_sc_hd__conb_1
XPHY_145 VGND VPWR sky130_fd_sc_hd__tapvpwrvgnd_1
XPHY_134 VGND VPWR sky130_fd_sc_hd__tapvpwrvgnd_1
XPHY_123 VGND VPWR sky130_fd_sc_hd__tapvpwrvgnd_1
XPHY_112 VGND VPWR sky130_fd_sc_hd__tapvpwrvgnd_1
XFILLER_12_312 VGND VPWR sky130_fd_sc_hd__decap_12
XPHY_101 VGND VPWR sky130_fd_sc_hd__tapvpwrvgnd_1
XFILLER_8_349 VGND VPWR sky130_fd_sc_hd__decap_12
XFILLER_15_172 VGND VPWR sky130_fd_sc_hd__decap_8
XPHY_3 VGND VPWR sky130_fd_sc_hd__decap_3
XFILLER_12_120 VGND VPWR sky130_fd_sc_hd__fill_2
XANTENNA_mem_right_ipin_4.sc_dff_compact_2_.sky130_fd_sc_hd__dfrbp_1_D mem_right_ipin_4.sc_dff_compact_1_.sky130_fd_sc_hd__dfrbp_1/Q
+ VGND VPWR sky130_fd_sc_hd__diode_2
XFILLER_12_19 VGND VPWR sky130_fd_sc_hd__fill_1
XFILLER_1_333 VGND VPWR sky130_fd_sc_hd__fill_2
XFILLER_1_344 VGND VPWR sky130_fd_sc_hd__decap_12
XFILLER_4_160 VGND VPWR sky130_fd_sc_hd__fill_2
XFILLER_4_86 VGND VPWR sky130_fd_sc_hd__fill_2
XFILLER_4_97 VGND VPWR sky130_fd_sc_hd__fill_2
XFILLER_14_215 VGND VPWR sky130_fd_sc_hd__fill_2
XFILLER_13_62 VGND VPWR sky130_fd_sc_hd__fill_2
XFILLER_13_51 VGND VPWR sky130_fd_sc_hd__decap_6
XANTENNA_mem_right_ipin_5.sc_dff_compact_0_.sky130_fd_sc_hd__dfrbp_1_D mem_right_ipin_4.sc_dff_compact_5_.sky130_fd_sc_hd__dfrbp_1/Q
+ VGND VPWR sky130_fd_sc_hd__diode_2
X_23_ chany_in_5_ chany_out_5_ VGND VPWR sky130_fd_sc_hd__buf_2
XFILLER_6_288 VGND VPWR sky130_fd_sc_hd__decap_12
XFILLER_1_98 VGND VPWR sky130_fd_sc_hd__decap_6
XANTENNA_mem_right_ipin_4.sc_dff_compact_5_.sky130_fd_sc_hd__dfrbp_1_D mem_right_ipin_4.sc_dff_compact_4_.sky130_fd_sc_hd__dfrbp_1/Q
+ VGND VPWR sky130_fd_sc_hd__diode_2
XFILLER_15_310 VGND VPWR sky130_fd_sc_hd__decap_12
XFILLER_10_52 VGND VPWR sky130_fd_sc_hd__decap_8
XFILLER_10_30 VGND VPWR sky130_fd_sc_hd__fill_1
X_06_ _06_/HI left_grid_pin_12_ VGND VPWR sky130_fd_sc_hd__conb_1
XPHY_135 VGND VPWR sky130_fd_sc_hd__tapvpwrvgnd_1
XFILLER_16_118 VGND VPWR sky130_fd_sc_hd__decap_4
XPHY_124 VGND VPWR sky130_fd_sc_hd__tapvpwrvgnd_1
XPHY_113 VGND VPWR sky130_fd_sc_hd__tapvpwrvgnd_1
XFILLER_12_324 VGND VPWR sky130_fd_sc_hd__decap_12
XPHY_102 VGND VPWR sky130_fd_sc_hd__tapvpwrvgnd_1
XFILLER_15_184 VGND VPWR sky130_fd_sc_hd__decap_12
XFILLER_11_9 VGND VPWR sky130_fd_sc_hd__fill_1
XPHY_4 VGND VPWR sky130_fd_sc_hd__decap_3
XANTENNA_clkbuf_1_1_0_prog_clk_A clkbuf_0_prog_clk/X VGND VPWR sky130_fd_sc_hd__diode_2
XFILLER_16_40 VGND VPWR sky130_fd_sc_hd__fill_2
XFILLER_12_176 VGND VPWR sky130_fd_sc_hd__fill_2
XFILLER_12_154 VGND VPWR sky130_fd_sc_hd__decap_12
XFILLER_12_110 VGND VPWR sky130_fd_sc_hd__decap_8
XFILLER_1_356 VGND VPWR sky130_fd_sc_hd__decap_8
XANTENNA_mem_right_ipin_5.sc_dff_compact_3_.sky130_fd_sc_hd__dfrbp_1_D mem_right_ipin_5.sc_dff_compact_2_.sky130_fd_sc_hd__dfrbp_1/Q
+ VGND VPWR sky130_fd_sc_hd__diode_2
XFILLER_2_109 VGND VPWR sky130_fd_sc_hd__decap_4
XFILLER_4_32 VGND VPWR sky130_fd_sc_hd__fill_2
XFILLER_4_194 VGND VPWR sky130_fd_sc_hd__decap_12
XFILLER_1_131 VGND VPWR sky130_fd_sc_hd__decap_12
XFILLER_1_120 VGND VPWR sky130_fd_sc_hd__fill_2
XANTENNA_mem_right_ipin_7.sc_dff_compact_0_.sky130_fd_sc_hd__dfrbp_1_RESET_B pReset
+ VGND VPWR sky130_fd_sc_hd__diode_2
XFILLER_9_242 VGND VPWR sky130_fd_sc_hd__fill_2
XFILLER_1_197 VGND VPWR sky130_fd_sc_hd__fill_2
XFILLER_1_175 VGND VPWR sky130_fd_sc_hd__fill_2
X_22_ chany_in_4_ chany_out_4_ VGND VPWR sky130_fd_sc_hd__buf_2
XFILLER_10_274 VGND VPWR sky130_fd_sc_hd__fill_1
XFILLER_6_256 VGND VPWR sky130_fd_sc_hd__decap_12
XFILLER_1_44 VGND VPWR sky130_fd_sc_hd__decap_12
XFILLER_1_11 VGND VPWR sky130_fd_sc_hd__fill_2
Xmem_right_ipin_7.sc_dff_compact_1_.sky130_fd_sc_hd__dfrbp_1 mem_right_ipin_7.sc_dff_compact_0_.sky130_fd_sc_hd__dfrbp_1/Q
+ mem_right_ipin_7.sc_dff_compact_2_.sky130_fd_sc_hd__dfrbp_1/D mem_right_ipin_7.sc_dff_compact_1_.sky130_fd_sc_hd__dfrbp_1/Q_N
+ pReset clkbuf_2_3_0_prog_clk/X VGND VPWR sky130_fd_sc_hd__dfrbp_1
XFILLER_15_322 VGND VPWR sky130_fd_sc_hd__decap_12
XFILLER_15_300 VGND VPWR sky130_fd_sc_hd__decap_4
XFILLER_10_97 VGND VPWR sky130_fd_sc_hd__decap_12
XFILLER_10_20 VGND VPWR sky130_fd_sc_hd__fill_2
XANTENNA_mem_right_ipin_6.sc_dff_compact_1_.sky130_fd_sc_hd__dfrbp_1_D mem_right_ipin_6.sc_dff_compact_1_.sky130_fd_sc_hd__dfrbp_1/D
+ VGND VPWR sky130_fd_sc_hd__diode_2
XFILLER_3_226 VGND VPWR sky130_fd_sc_hd__fill_2
X_05_ _05_/HI left_grid_pin_14_ VGND VPWR sky130_fd_sc_hd__conb_1
Xmem_right_ipin_4.sc_dff_compact_2_.sky130_fd_sc_hd__dfrbp_1 mem_right_ipin_4.sc_dff_compact_1_.sky130_fd_sc_hd__dfrbp_1/Q
+ mem_right_ipin_4.sc_dff_compact_2_.sky130_fd_sc_hd__dfrbp_1/Q mem_right_ipin_4.sc_dff_compact_2_.sky130_fd_sc_hd__dfrbp_1/Q_N
+ pReset clkbuf_2_3_0_prog_clk/X VGND VPWR sky130_fd_sc_hd__dfrbp_1
XPHY_136 VGND VPWR sky130_fd_sc_hd__tapvpwrvgnd_1
XPHY_125 VGND VPWR sky130_fd_sc_hd__tapvpwrvgnd_1
XPHY_114 VGND VPWR sky130_fd_sc_hd__tapvpwrvgnd_1
XPHY_103 VGND VPWR sky130_fd_sc_hd__tapvpwrvgnd_1
XFILLER_0_218 VGND VPWR sky130_fd_sc_hd__fill_2
XFILLER_15_196 VGND VPWR sky130_fd_sc_hd__decap_8
XFILLER_7_362 VGND VPWR sky130_fd_sc_hd__decap_3
XFILLER_7_76 VGND VPWR sky130_fd_sc_hd__fill_2
XPHY_5 VGND VPWR sky130_fd_sc_hd__decap_3
Xmem_right_ipin_1.sc_dff_compact_3_.sky130_fd_sc_hd__dfrbp_1 mem_right_ipin_1.sc_dff_compact_2_.sky130_fd_sc_hd__dfrbp_1/Q
+ mem_right_ipin_1.sc_dff_compact_4_.sky130_fd_sc_hd__dfrbp_1/D mem_right_ipin_1.sc_dff_compact_3_.sky130_fd_sc_hd__dfrbp_1/Q_N
+ pReset clkbuf_2_0_0_prog_clk/X VGND VPWR sky130_fd_sc_hd__dfrbp_1
XFILLER_12_166 VGND VPWR sky130_fd_sc_hd__decap_8
XFILLER_7_170 VGND VPWR sky130_fd_sc_hd__fill_2
XFILLER_17_236 VGND VPWR sky130_fd_sc_hd__fill_1
XFILLER_4_151 VGND VPWR sky130_fd_sc_hd__fill_2
XFILLER_14_206 VGND VPWR sky130_fd_sc_hd__decap_3
XANTENNA_mem_right_ipin_0.sc_dff_compact_2_.sky130_fd_sc_hd__dfrbp_1_CLK clkbuf_2_1_0_prog_clk/X
+ VGND VPWR sky130_fd_sc_hd__diode_2
XANTENNA_mem_right_ipin_6.sc_dff_compact_4_.sky130_fd_sc_hd__dfrbp_1_D mem_right_ipin_6.sc_dff_compact_4_.sky130_fd_sc_hd__dfrbp_1/D
+ VGND VPWR sky130_fd_sc_hd__diode_2
XFILLER_1_143 VGND VPWR sky130_fd_sc_hd__fill_2
XANTENNA_mem_right_ipin_1.sc_dff_compact_3_.sky130_fd_sc_hd__dfrbp_1_CLK clkbuf_2_0_0_prog_clk/X
+ VGND VPWR sky130_fd_sc_hd__diode_2
XANTENNA_mem_right_ipin_2.sc_dff_compact_4_.sky130_fd_sc_hd__dfrbp_1_CLK clkbuf_2_2_0_prog_clk/X
+ VGND VPWR sky130_fd_sc_hd__diode_2
X_21_ chany_in_3_ chany_out_3_ VGND VPWR sky130_fd_sc_hd__buf_2
XANTENNA_mem_right_ipin_3.sc_dff_compact_5_.sky130_fd_sc_hd__dfrbp_1_CLK clkbuf_2_3_0_prog_clk/X
+ VGND VPWR sky130_fd_sc_hd__diode_2
XFILLER_6_268 VGND VPWR sky130_fd_sc_hd__decap_6
XFILLER_6_213 VGND VPWR sky130_fd_sc_hd__fill_1
XFILLER_1_56 VGND VPWR sky130_fd_sc_hd__decap_4
XFILLER_15_334 VGND VPWR sky130_fd_sc_hd__decap_3
XFILLER_10_32 VGND VPWR sky130_fd_sc_hd__fill_2
XFILLER_3_238 VGND VPWR sky130_fd_sc_hd__fill_2
X_04_ _04_/HI left_grid_pin_2_ VGND VPWR sky130_fd_sc_hd__conb_1
XFILLER_2_271 VGND VPWR sky130_fd_sc_hd__decap_4
XPHY_137 VGND VPWR sky130_fd_sc_hd__tapvpwrvgnd_1
XPHY_126 VGND VPWR sky130_fd_sc_hd__tapvpwrvgnd_1
XPHY_115 VGND VPWR sky130_fd_sc_hd__tapvpwrvgnd_1
XFILLER_12_337 VGND VPWR sky130_fd_sc_hd__decap_12
XPHY_104 VGND VPWR sky130_fd_sc_hd__tapvpwrvgnd_1
XFILLER_15_120 VGND VPWR sky130_fd_sc_hd__fill_2
XFILLER_7_330 VGND VPWR sky130_fd_sc_hd__decap_12
XFILLER_7_66 VGND VPWR sky130_fd_sc_hd__fill_2
XFILLER_7_44 VGND VPWR sky130_fd_sc_hd__decap_12
XFILLER_7_11 VGND VPWR sky130_fd_sc_hd__fill_2
XPHY_6 VGND VPWR sky130_fd_sc_hd__decap_3
XANTENNA_mem_right_ipin_7.sc_dff_compact_2_.sky130_fd_sc_hd__dfrbp_1_D mem_right_ipin_7.sc_dff_compact_2_.sky130_fd_sc_hd__dfrbp_1/D
+ VGND VPWR sky130_fd_sc_hd__diode_2
XFILLER_12_145 VGND VPWR sky130_fd_sc_hd__decap_8