* NGSPICE file created from cby_0__1_.ext - technology: sky130A

* Black-box entry subcircuit for sky130_fd_sc_hd__decap_12 abstract view
.subckt sky130_fd_sc_hd__decap_12 VGND VPWR
.ends

* Black-box entry subcircuit for sky130_fd_sc_hd__fill_1 abstract view
.subckt sky130_fd_sc_hd__fill_1 VGND VPWR
.ends

* Black-box entry subcircuit for sky130_fd_sc_hd__fill_2 abstract view
.subckt sky130_fd_sc_hd__fill_2 VGND VPWR
.ends

* Black-box entry subcircuit for sky130_fd_sc_hd__decap_6 abstract view
.subckt sky130_fd_sc_hd__decap_6 VGND VPWR
.ends

* Black-box entry subcircuit for sky130_fd_sc_hd__dfrbp_1 abstract view
.subckt sky130_fd_sc_hd__dfrbp_1 D Q Q_N RESET_B CLK VGND VPWR
.ends

* Black-box entry subcircuit for sky130_fd_sc_hd__decap_8 abstract view
.subckt sky130_fd_sc_hd__decap_8 VGND VPWR
.ends

* Black-box entry subcircuit for sky130_fd_sc_hd__diode_2 abstract view
.subckt sky130_fd_sc_hd__diode_2 DIODE VGND VPWR
.ends

* Black-box entry subcircuit for sky130_fd_sc_hd__decap_3 abstract view
.subckt sky130_fd_sc_hd__decap_3 VGND VPWR
.ends

* Black-box entry subcircuit for sky130_fd_sc_hd__decap_4 abstract view
.subckt sky130_fd_sc_hd__decap_4 VGND VPWR
.ends

* Black-box entry subcircuit for sky130_fd_sc_hd__tapvpwrvgnd_1 abstract view
.subckt sky130_fd_sc_hd__tapvpwrvgnd_1 VGND VPWR
.ends

* Black-box entry subcircuit for sky130_fd_sc_hd__clkbuf_1 abstract view
.subckt sky130_fd_sc_hd__clkbuf_1 A X VGND VPWR
.ends

* Black-box entry subcircuit for sky130_fd_sc_hd__buf_2 abstract view
.subckt sky130_fd_sc_hd__buf_2 A X VGND VPWR
.ends

* Black-box entry subcircuit for sky130_fd_sc_hd__conb_1 abstract view
.subckt sky130_fd_sc_hd__conb_1 HI LO VGND VPWR
.ends

* Black-box entry subcircuit for sky130_fd_sc_hd__clkbuf_16 abstract view
.subckt sky130_fd_sc_hd__clkbuf_16 A X VGND VPWR
.ends

.subckt cby_0__1_ chany_top_in[0] chany_top_in[1] chany_top_in[2] chany_top_in[3]
+ chany_top_in[4] chany_top_in[5] chany_top_in[6] chany_top_in[7] chany_top_in[8]
+ chany_top_out[0] chany_top_out[1] chany_top_out[2] chany_top_out[3] chany_top_out[4]
+ chany_top_out[5] chany_top_out[6] chany_top_out[7] chany_top_out[8] right_grid_pin_3_
+ right_grid_pin_7_ chany_bottom_in[0] chany_bottom_in[1] chany_bottom_in[2] chany_bottom_in[3]
+ chany_bottom_in[4] chany_bottom_in[5] chany_bottom_in[6] chany_bottom_in[7] chany_bottom_in[8]
+ chany_bottom_out[0] chany_bottom_out[1] chany_bottom_out[2] chany_bottom_out[3]
+ chany_bottom_out[4] chany_bottom_out[5] chany_bottom_out[6] chany_bottom_out[7]
+ chany_bottom_out[8] ccff_head left_grid_pin_0_ left_grid_pin_2_ left_grid_pin_4_
+ left_grid_pin_6_ left_grid_pin_8_ left_grid_pin_10_ left_grid_pin_12_ left_grid_pin_14_
+ ccff_tail pReset prog_clk VPWR VGND
XFILLER_22_166 VGND VPWR sky130_fd_sc_hd__decap_12
XFILLER_10_317 VGND VPWR sky130_fd_sc_hd__decap_12
XFILLER_10_306 VGND VPWR sky130_fd_sc_hd__fill_1
XFILLER_13_188 VGND VPWR sky130_fd_sc_hd__fill_2
XFILLER_13_111 VGND VPWR sky130_fd_sc_hd__decap_6
XFILLER_9_115 VGND VPWR sky130_fd_sc_hd__decap_6
XFILLER_5_310 VGND VPWR sky130_fd_sc_hd__fill_1
Xmem_right_ipin_7.sc_dff_compact_2_.sky130_fd_sc_hd__dfrbp_1 mem_right_ipin_7.sc_dff_compact_1_.sky130_fd_sc_hd__dfrbp_1/Q
+ mem_right_ipin_7.sc_dff_compact_3_.sky130_fd_sc_hd__dfrbp_1/D mem_right_ipin_7.sc_dff_compact_2_.sky130_fd_sc_hd__dfrbp_1/Q_N
+ pReset clkbuf_2_2_0_prog_clk/X VGND VPWR sky130_fd_sc_hd__dfrbp_1
XFILLER_3_23 VGND VPWR sky130_fd_sc_hd__decap_12
XFILLER_12_32 VGND VPWR sky130_fd_sc_hd__decap_8
XFILLER_12_21 VGND VPWR sky130_fd_sc_hd__decap_8
XFILLER_10_136 VGND VPWR sky130_fd_sc_hd__decap_6
Xmem_right_ipin_4.sc_dff_compact_3_.sky130_fd_sc_hd__dfrbp_1 mem_right_ipin_4.sc_dff_compact_2_.sky130_fd_sc_hd__dfrbp_1/Q
+ mem_right_ipin_4.sc_dff_compact_3_.sky130_fd_sc_hd__dfrbp_1/Q mem_right_ipin_4.sc_dff_compact_3_.sky130_fd_sc_hd__dfrbp_1/Q_N
+ pReset clkbuf_2_2_0_prog_clk/X VGND VPWR sky130_fd_sc_hd__dfrbp_1
XANTENNA_mem_right_ipin_7.sc_dff_compact_3_.sky130_fd_sc_hd__dfrbp_1_D mem_right_ipin_7.sc_dff_compact_3_.sky130_fd_sc_hd__dfrbp_1/D
+ VGND VPWR sky130_fd_sc_hd__diode_2
XFILLER_24_239 VGND VPWR sky130_fd_sc_hd__decap_12
XFILLER_5_184 VGND VPWR sky130_fd_sc_hd__decap_12
XFILLER_23_86 VGND VPWR sky130_fd_sc_hd__decap_12
XFILLER_15_206 VGND VPWR sky130_fd_sc_hd__fill_2
Xmem_right_ipin_1.sc_dff_compact_4_.sky130_fd_sc_hd__dfrbp_1 mem_right_ipin_1.sc_dff_compact_3_.sky130_fd_sc_hd__dfrbp_1/Q
+ mem_right_ipin_1.sc_dff_compact_4_.sky130_fd_sc_hd__dfrbp_1/Q mem_right_ipin_1.sc_dff_compact_4_.sky130_fd_sc_hd__dfrbp_1/Q_N
+ pReset clkbuf_2_1_0_prog_clk/X VGND VPWR sky130_fd_sc_hd__dfrbp_1
XFILLER_14_272 VGND VPWR sky130_fd_sc_hd__decap_3
XFILLER_9_66 VGND VPWR sky130_fd_sc_hd__fill_2
XFILLER_0_68 VGND VPWR sky130_fd_sc_hd__decap_12
XFILLER_2_154 VGND VPWR sky130_fd_sc_hd__fill_2
XANTENNA_clkbuf_2_1_0_prog_clk_A clkbuf_1_0_0_prog_clk/X VGND VPWR sky130_fd_sc_hd__diode_2
XFILLER_18_64 VGND VPWR sky130_fd_sc_hd__decap_12
XFILLER_25_323 VGND VPWR sky130_fd_sc_hd__decap_12
XFILLER_19_342 VGND VPWR sky130_fd_sc_hd__decap_12
XFILLER_20_32 VGND VPWR sky130_fd_sc_hd__decap_12
XFILLER_20_21 VGND VPWR sky130_fd_sc_hd__decap_8
XFILLER_4_227 VGND VPWR sky130_fd_sc_hd__decap_12
XFILLER_22_337 VGND VPWR sky130_fd_sc_hd__decap_12
XFILLER_13_3 VGND VPWR sky130_fd_sc_hd__fill_2
XFILLER_3_293 VGND VPWR sky130_fd_sc_hd__decap_4
XFILLER_15_87 VGND VPWR sky130_fd_sc_hd__decap_12
XPHY_192 VGND VPWR sky130_fd_sc_hd__tapvpwrvgnd_1
XPHY_181 VGND VPWR sky130_fd_sc_hd__tapvpwrvgnd_1
XPHY_170 VGND VPWR sky130_fd_sc_hd__tapvpwrvgnd_1
XFILLER_8_385 VGND VPWR sky130_fd_sc_hd__fill_2
XFILLER_0_230 VGND VPWR sky130_fd_sc_hd__decap_12
XFILLER_22_178 VGND VPWR sky130_fd_sc_hd__decap_12
XFILLER_10_329 VGND VPWR sky130_fd_sc_hd__decap_6
XFILLER_13_123 VGND VPWR sky130_fd_sc_hd__fill_2
XFILLER_3_13 VGND VPWR sky130_fd_sc_hd__fill_2
XFILLER_3_35 VGND VPWR sky130_fd_sc_hd__decap_12
XFILLER_8_182 VGND VPWR sky130_fd_sc_hd__fill_1
XFILLER_18_215 VGND VPWR sky130_fd_sc_hd__decap_12
XFILLER_2_303 VGND VPWR sky130_fd_sc_hd__fill_2
XFILLER_17_281 VGND VPWR sky130_fd_sc_hd__decap_12
XFILLER_5_196 VGND VPWR sky130_fd_sc_hd__decap_12
XFILLER_5_174 VGND VPWR sky130_fd_sc_hd__fill_2
XFILLER_23_98 VGND VPWR sky130_fd_sc_hd__decap_12
XFILLER_14_240 VGND VPWR sky130_fd_sc_hd__decap_12
XANTENNA_mem_right_ipin_0.sc_dff_compact_4_.sky130_fd_sc_hd__dfrbp_1_RESET_B pReset
+ VGND VPWR sky130_fd_sc_hd__diode_2
XFILLER_20_276 VGND VPWR sky130_fd_sc_hd__decap_12
XFILLER_18_76 VGND VPWR sky130_fd_sc_hd__decap_12
XFILLER_18_32 VGND VPWR sky130_fd_sc_hd__decap_12
XFILLER_11_298 VGND VPWR sky130_fd_sc_hd__decap_3
XFILLER_11_243 VGND VPWR sky130_fd_sc_hd__fill_1
XFILLER_7_225 VGND VPWR sky130_fd_sc_hd__decap_8
XANTENNA_mem_right_ipin_2.sc_dff_compact_5_.sky130_fd_sc_hd__dfrbp_1_RESET_B pReset
+ VGND VPWR sky130_fd_sc_hd__diode_2
XFILLER_22_8 VGND VPWR sky130_fd_sc_hd__decap_12
XFILLER_19_354 VGND VPWR sky130_fd_sc_hd__decap_12
XFILLER_25_335 VGND VPWR sky130_fd_sc_hd__decap_6
XFILLER_20_44 VGND VPWR sky130_fd_sc_hd__decap_12
XFILLER_4_239 VGND VPWR sky130_fd_sc_hd__decap_12
XFILLER_19_184 VGND VPWR sky130_fd_sc_hd__decap_12
XFILLER_25_187 VGND VPWR sky130_fd_sc_hd__decap_12
XFILLER_22_349 VGND VPWR sky130_fd_sc_hd__decap_12
XFILLER_15_55 VGND VPWR sky130_fd_sc_hd__fill_2
XPHY_193 VGND VPWR sky130_fd_sc_hd__tapvpwrvgnd_1
XPHY_182 VGND VPWR sky130_fd_sc_hd__tapvpwrvgnd_1
XPHY_171 VGND VPWR sky130_fd_sc_hd__tapvpwrvgnd_1
XPHY_160 VGND VPWR sky130_fd_sc_hd__tapvpwrvgnd_1
XFILLER_16_154 VGND VPWR sky130_fd_sc_hd__decap_12
XFILLER_15_99 VGND VPWR sky130_fd_sc_hd__decap_12
XFILLER_0_242 VGND VPWR sky130_fd_sc_hd__decap_6
XFILLER_9_128 VGND VPWR sky130_fd_sc_hd__fill_2
XFILLER_7_9 VGND VPWR sky130_fd_sc_hd__fill_2
XFILLER_5_367 VGND VPWR sky130_fd_sc_hd__decap_12
XFILLER_5_334 VGND VPWR sky130_fd_sc_hd__decap_12
XANTENNA_mem_right_ipin_0.sc_dff_compact_4_.sky130_fd_sc_hd__dfrbp_1_CLK clkbuf_2_1_0_prog_clk/X
+ VGND VPWR sky130_fd_sc_hd__diode_2
XFILLER_3_47 VGND VPWR sky130_fd_sc_hd__decap_8
XFILLER_12_67 VGND VPWR sky130_fd_sc_hd__decap_12
XANTENNA_mem_right_ipin_1.sc_dff_compact_5_.sky130_fd_sc_hd__dfrbp_1_CLK clkbuf_2_1_0_prog_clk/X
+ VGND VPWR sky130_fd_sc_hd__diode_2
XFILLER_10_149 VGND VPWR sky130_fd_sc_hd__decap_4
XFILLER_10_105 VGND VPWR sky130_fd_sc_hd__decap_12
XFILLER_6_109 VGND VPWR sky130_fd_sc_hd__fill_2
XFILLER_2_337 VGND VPWR sky130_fd_sc_hd__decap_12
XFILLER_18_227 VGND VPWR sky130_fd_sc_hd__decap_12
Xmem_right_ipin_6.sc_dff_compact_1_.sky130_fd_sc_hd__dfrbp_1 mem_right_ipin_6.sc_dff_compact_0_.sky130_fd_sc_hd__dfrbp_1/Q
+ mem_right_ipin_6.sc_dff_compact_2_.sky130_fd_sc_hd__dfrbp_1/D mem_right_ipin_6.sc_dff_compact_1_.sky130_fd_sc_hd__dfrbp_1/Q_N
+ pReset clkbuf_2_0_0_prog_clk/X VGND VPWR sky130_fd_sc_hd__dfrbp_1
XFILLER_17_293 VGND VPWR sky130_fd_sc_hd__decap_12
XFILLER_4_90 VGND VPWR sky130_fd_sc_hd__fill_2
Xmem_left_ipin_0.sc_dff_compact_2_.sky130_fd_sc_hd__dfrbp_1 mem_left_ipin_0.sc_dff_compact_1_.sky130_fd_sc_hd__dfrbp_1/Q
+ mem_left_ipin_0.sc_dff_compact_2_.sky130_fd_sc_hd__dfrbp_1/Q mem_left_ipin_0.sc_dff_compact_2_.sky130_fd_sc_hd__dfrbp_1/Q_N
+ pReset clkbuf_2_3_0_prog_clk/X VGND VPWR sky130_fd_sc_hd__dfrbp_1
XFILLER_14_252 VGND VPWR sky130_fd_sc_hd__decap_12
XFILLER_9_24 VGND VPWR sky130_fd_sc_hd__fill_2
XFILLER_9_13 VGND VPWR sky130_fd_sc_hd__fill_2
XFILLER_0_37 VGND VPWR sky130_fd_sc_hd__decap_12
XFILLER_3_3 VGND VPWR sky130_fd_sc_hd__fill_2
XFILLER_9_57 VGND VPWR sky130_fd_sc_hd__decap_4
Xmem_right_ipin_3.sc_dff_compact_2_.sky130_fd_sc_hd__dfrbp_1 mem_right_ipin_3.sc_dff_compact_1_.sky130_fd_sc_hd__dfrbp_1/Q
+ mem_right_ipin_3.sc_dff_compact_2_.sky130_fd_sc_hd__dfrbp_1/Q mem_right_ipin_3.sc_dff_compact_2_.sky130_fd_sc_hd__dfrbp_1/Q_N
+ pReset clkbuf_2_2_0_prog_clk/X VGND VPWR sky130_fd_sc_hd__dfrbp_1
XFILLER_20_288 VGND VPWR sky130_fd_sc_hd__decap_12
XFILLER_18_88 VGND VPWR sky130_fd_sc_hd__decap_4
XFILLER_18_44 VGND VPWR sky130_fd_sc_hd__decap_12
XFILLER_11_200 VGND VPWR sky130_fd_sc_hd__decap_12
Xmem_right_ipin_0.sc_dff_compact_3_.sky130_fd_sc_hd__dfrbp_1 mem_right_ipin_0.sc_dff_compact_3_.sky130_fd_sc_hd__dfrbp_1/D
+ mem_right_ipin_0.sc_dff_compact_3_.sky130_fd_sc_hd__dfrbp_1/Q mem_right_ipin_0.sc_dff_compact_3_.sky130_fd_sc_hd__dfrbp_1/Q_N
+ pReset clkbuf_2_1_0_prog_clk/X VGND VPWR sky130_fd_sc_hd__dfrbp_1
XFILLER_20_56 VGND VPWR sky130_fd_sc_hd__decap_12
XANTENNA_clkbuf_1_0_0_prog_clk_A clkbuf_0_prog_clk/X VGND VPWR sky130_fd_sc_hd__diode_2
XFILLER_16_325 VGND VPWR sky130_fd_sc_hd__decap_8
XFILLER_19_196 VGND VPWR sky130_fd_sc_hd__decap_12
XFILLER_25_199 VGND VPWR sky130_fd_sc_hd__decap_12
XFILLER_16_166 VGND VPWR sky130_fd_sc_hd__decap_12
XFILLER_15_45 VGND VPWR sky130_fd_sc_hd__fill_2
XFILLER_13_306 VGND VPWR sky130_fd_sc_hd__fill_2
XFILLER_0_276 VGND VPWR sky130_fd_sc_hd__decap_3
XPHY_194 VGND VPWR sky130_fd_sc_hd__tapvpwrvgnd_1
XPHY_183 VGND VPWR sky130_fd_sc_hd__tapvpwrvgnd_1
XPHY_172 VGND VPWR sky130_fd_sc_hd__tapvpwrvgnd_1
XPHY_161 VGND VPWR sky130_fd_sc_hd__tapvpwrvgnd_1
XPHY_150 VGND VPWR sky130_fd_sc_hd__tapvpwrvgnd_1
XFILLER_12_361 VGND VPWR sky130_fd_sc_hd__decap_12
Xclkbuf_2_1_0_prog_clk clkbuf_1_0_0_prog_clk/X clkbuf_2_1_0_prog_clk/X VGND VPWR sky130_fd_sc_hd__clkbuf_1
XFILLER_13_136 VGND VPWR sky130_fd_sc_hd__fill_2
XFILLER_10_309 VGND VPWR sky130_fd_sc_hd__fill_2
XFILLER_8_151 VGND VPWR sky130_fd_sc_hd__fill_2
XFILLER_5_379 VGND VPWR sky130_fd_sc_hd__decap_8
XFILLER_5_346 VGND VPWR sky130_fd_sc_hd__decap_12
XFILLER_3_59 VGND VPWR sky130_fd_sc_hd__fill_2
XFILLER_12_79 VGND VPWR sky130_fd_sc_hd__decap_12
XFILLER_10_128 VGND VPWR sky130_fd_sc_hd__fill_2
XFILLER_10_117 VGND VPWR sky130_fd_sc_hd__decap_4
XFILLER_18_239 VGND VPWR sky130_fd_sc_hd__decap_12
XFILLER_2_349 VGND VPWR sky130_fd_sc_hd__decap_12
XFILLER_5_110 VGND VPWR sky130_fd_sc_hd__decap_12
XANTENNA_mem_right_ipin_1.sc_dff_compact_5_.sky130_fd_sc_hd__dfrbp_1_RESET_B pReset
+ VGND VPWR sky130_fd_sc_hd__diode_2
XFILLER_23_220 VGND VPWR sky130_fd_sc_hd__decap_12
XANTENNA__12__A chany_top_in[6] VGND VPWR sky130_fd_sc_hd__diode_2
XFILLER_0_49 VGND VPWR sky130_fd_sc_hd__decap_12
XFILLER_14_264 VGND VPWR sky130_fd_sc_hd__decap_8
XFILLER_18_56 VGND VPWR sky130_fd_sc_hd__decap_6
XFILLER_11_212 VGND VPWR sky130_fd_sc_hd__fill_1
XFILLER_19_367 VGND VPWR sky130_fd_sc_hd__decap_12
XFILLER_11_289 VGND VPWR sky130_fd_sc_hd__decap_3
XFILLER_11_245 VGND VPWR sky130_fd_sc_hd__decap_12
XFILLER_7_249 VGND VPWR sky130_fd_sc_hd__decap_12
XANTENNA_mem_right_ipin_4.sc_dff_compact_0_.sky130_fd_sc_hd__dfrbp_1_CLK clkbuf_2_2_0_prog_clk/X
+ VGND VPWR sky130_fd_sc_hd__diode_2
XFILLER_7_238 VGND VPWR sky130_fd_sc_hd__fill_2
XFILLER_25_304 VGND VPWR sky130_fd_sc_hd__decap_6
XANTENNA_mem_right_ipin_6.sc_dff_compact_2_.sky130_fd_sc_hd__dfrbp_1_CLK clkbuf_2_2_0_prog_clk/X
+ VGND VPWR sky130_fd_sc_hd__diode_2
XANTENNA_mem_right_ipin_5.sc_dff_compact_1_.sky130_fd_sc_hd__dfrbp_1_CLK clkbuf_2_0_0_prog_clk/X
+ VGND VPWR sky130_fd_sc_hd__diode_2
XFILLER_20_68 VGND VPWR sky130_fd_sc_hd__decap_12
XFILLER_16_337 VGND VPWR sky130_fd_sc_hd__decap_12
XANTENNA_mem_right_ipin_7.sc_dff_compact_3_.sky130_fd_sc_hd__dfrbp_1_CLK clkbuf_2_2_0_prog_clk/X
+ VGND VPWR sky130_fd_sc_hd__diode_2
XFILLER_3_241 VGND VPWR sky130_fd_sc_hd__decap_3
XFILLER_25_156 VGND VPWR sky130_fd_sc_hd__decap_12
XANTENNA__20__A chany_bottom_in[7] VGND VPWR sky130_fd_sc_hd__diode_2
XPHY_195 VGND VPWR sky130_fd_sc_hd__tapvpwrvgnd_1
XPHY_184 VGND VPWR sky130_fd_sc_hd__tapvpwrvgnd_1
XPHY_173 VGND VPWR sky130_fd_sc_hd__tapvpwrvgnd_1
XPHY_162 VGND VPWR sky130_fd_sc_hd__tapvpwrvgnd_1
XFILLER_16_178 VGND VPWR sky130_fd_sc_hd__decap_12
XPHY_151 VGND VPWR sky130_fd_sc_hd__tapvpwrvgnd_1
XPHY_140 VGND VPWR sky130_fd_sc_hd__tapvpwrvgnd_1
XFILLER_12_373 VGND VPWR sky130_fd_sc_hd__decap_12
XFILLER_11_3 VGND VPWR sky130_fd_sc_hd__fill_2
XANTENNA_mem_left_ipin_0.sc_dff_compact_3_.sky130_fd_sc_hd__dfrbp_1_CLK clkbuf_2_3_0_prog_clk/X
+ VGND VPWR sky130_fd_sc_hd__diode_2
XFILLER_7_80 VGND VPWR sky130_fd_sc_hd__fill_1
XFILLER_21_170 VGND VPWR sky130_fd_sc_hd__decap_12
XANTENNA__15__A chany_top_in[3] VGND VPWR sky130_fd_sc_hd__diode_2
XFILLER_5_358 VGND VPWR sky130_fd_sc_hd__decap_8
XFILLER_5_303 VGND VPWR sky130_fd_sc_hd__fill_2
Xmem_right_ipin_7.sc_dff_compact_5_.sky130_fd_sc_hd__dfrbp_1 mem_right_ipin_7.sc_dff_compact_4_.sky130_fd_sc_hd__dfrbp_1/Q
+ ccff_tail mem_right_ipin_7.sc_dff_compact_5_.sky130_fd_sc_hd__dfrbp_1/Q_N pReset
+ clkbuf_2_2_0_prog_clk/X VGND VPWR sky130_fd_sc_hd__dfrbp_1
XFILLER_2_328 VGND VPWR sky130_fd_sc_hd__decap_8
XFILLER_23_232 VGND VPWR sky130_fd_sc_hd__decap_12
XFILLER_2_158 VGND VPWR sky130_fd_sc_hd__decap_12
XFILLER_14_298 VGND VPWR sky130_fd_sc_hd__fill_2
XFILLER_14_276 VGND VPWR sky130_fd_sc_hd__decap_12
XFILLER_14_210 VGND VPWR sky130_fd_sc_hd__decap_4
XFILLER_0_28 VGND VPWR sky130_fd_sc_hd__decap_3
XFILLER_20_202 VGND VPWR sky130_fd_sc_hd__decap_12
Xmem_right_ipin_5.sc_dff_compact_0_.sky130_fd_sc_hd__dfrbp_1 mem_right_ipin_4.sc_dff_compact_5_.sky130_fd_sc_hd__dfrbp_1/Q
+ mem_right_ipin_5.sc_dff_compact_0_.sky130_fd_sc_hd__dfrbp_1/Q mem_right_ipin_5.sc_dff_compact_0_.sky130_fd_sc_hd__dfrbp_1/Q_N
+ pReset clkbuf_2_2_0_prog_clk/X VGND VPWR sky130_fd_sc_hd__dfrbp_1
XFILLER_19_379 VGND VPWR sky130_fd_sc_hd__decap_8
XFILLER_11_257 VGND VPWR sky130_fd_sc_hd__decap_12
XANTENNA__23__A chany_bottom_in[4] VGND VPWR sky130_fd_sc_hd__diode_2
Xmem_right_ipin_2.sc_dff_compact_1_.sky130_fd_sc_hd__dfrbp_1 mem_right_ipin_2.sc_dff_compact_1_.sky130_fd_sc_hd__dfrbp_1/D
+ mem_right_ipin_2.sc_dff_compact_1_.sky130_fd_sc_hd__dfrbp_1/Q mem_right_ipin_2.sc_dff_compact_1_.sky130_fd_sc_hd__dfrbp_1/Q_N
+ pReset clkbuf_2_1_0_prog_clk/X VGND VPWR sky130_fd_sc_hd__dfrbp_1
XFILLER_1_82 VGND VPWR sky130_fd_sc_hd__fill_1
XFILLER_1_60 VGND VPWR sky130_fd_sc_hd__fill_1
XFILLER_16_349 VGND VPWR sky130_fd_sc_hd__decap_12
XANTENNA__18__A chany_top_in[0] VGND VPWR sky130_fd_sc_hd__diode_2
XFILLER_4_209 VGND VPWR sky130_fd_sc_hd__fill_1
XFILLER_19_110 VGND VPWR sky130_fd_sc_hd__decap_12
XFILLER_25_168 VGND VPWR sky130_fd_sc_hd__decap_12
XFILLER_21_330 VGND VPWR sky130_fd_sc_hd__decap_12
XANTENNA_mem_left_ipin_0.sc_dff_compact_1_.sky130_fd_sc_hd__dfrbp_1_D mem_left_ipin_0.sc_dff_compact_0_.sky130_fd_sc_hd__dfrbp_1/Q
+ VGND VPWR sky130_fd_sc_hd__diode_2
XANTENNA_mem_right_ipin_0.sc_dff_compact_1_.sky130_fd_sc_hd__dfrbp_1_D mem_right_ipin_0.sc_dff_compact_0_.sky130_fd_sc_hd__dfrbp_1/Q
+ VGND VPWR sky130_fd_sc_hd__diode_2
XFILLER_0_201 VGND VPWR sky130_fd_sc_hd__decap_12
XFILLER_24_190 VGND VPWR sky130_fd_sc_hd__decap_12
XPHY_196 VGND VPWR sky130_fd_sc_hd__tapvpwrvgnd_1
XPHY_185 VGND VPWR sky130_fd_sc_hd__tapvpwrvgnd_1
XPHY_174 VGND VPWR sky130_fd_sc_hd__tapvpwrvgnd_1
XPHY_163 VGND VPWR sky130_fd_sc_hd__tapvpwrvgnd_1
XPHY_152 VGND VPWR sky130_fd_sc_hd__tapvpwrvgnd_1
XPHY_141 VGND VPWR sky130_fd_sc_hd__tapvpwrvgnd_1
XFILLER_12_385 VGND VPWR sky130_fd_sc_hd__fill_2
XPHY_130 VGND VPWR sky130_fd_sc_hd__tapvpwrvgnd_1
XFILLER_8_312 VGND VPWR sky130_fd_sc_hd__decap_12
XFILLER_22_105 VGND VPWR sky130_fd_sc_hd__decap_12
XFILLER_21_182 VGND VPWR sky130_fd_sc_hd__fill_1
XANTENNA_mem_right_ipin_0.sc_dff_compact_5_.sky130_fd_sc_hd__dfrbp_1_RESET_B pReset
+ VGND VPWR sky130_fd_sc_hd__diode_2
XFILLER_13_127 VGND VPWR sky130_fd_sc_hd__fill_2
XFILLER_16_90 VGND VPWR sky130_fd_sc_hd__fill_2
XANTENNA__26__A chany_bottom_in[1] VGND VPWR sky130_fd_sc_hd__diode_2
XFILLER_5_9 VGND VPWR sky130_fd_sc_hd__fill_2
XFILLER_5_123 VGND VPWR sky130_fd_sc_hd__decap_12
XFILLER_5_167 VGND VPWR sky130_fd_sc_hd__fill_1
XFILLER_5_178 VGND VPWR sky130_fd_sc_hd__decap_4
XFILLER_4_82 VGND VPWR sky130_fd_sc_hd__decap_8
XFILLER_4_93 VGND VPWR sky130_fd_sc_hd__decap_12
XFILLER_14_288 VGND VPWR sky130_fd_sc_hd__decap_8
XANTENNA_mem_left_ipin_0.sc_dff_compact_4_.sky130_fd_sc_hd__dfrbp_1_D mem_left_ipin_0.sc_dff_compact_3_.sky130_fd_sc_hd__dfrbp_1/Q
+ VGND VPWR sky130_fd_sc_hd__diode_2
XFILLER_1_192 VGND VPWR sky130_fd_sc_hd__decap_12
XFILLER_1_181 VGND VPWR sky130_fd_sc_hd__fill_2
XANTENNA_mem_right_ipin_0.sc_dff_compact_4_.sky130_fd_sc_hd__dfrbp_1_D mem_right_ipin_0.sc_dff_compact_3_.sky130_fd_sc_hd__dfrbp_1/Q
+ VGND VPWR sky130_fd_sc_hd__diode_2
XFILLER_11_269 VGND VPWR sky130_fd_sc_hd__decap_12
XFILLER_1_3 VGND VPWR sky130_fd_sc_hd__fill_2
X_27_ chany_bottom_in[0] chany_top_out[0] VGND VPWR sky130_fd_sc_hd__buf_2
XFILLER_24_361 VGND VPWR sky130_fd_sc_hd__decap_12
XFILLER_20_9 VGND VPWR sky130_fd_sc_hd__decap_12
XFILLER_10_70 VGND VPWR sky130_fd_sc_hd__fill_2
XFILLER_3_265 VGND VPWR sky130_fd_sc_hd__fill_1
XFILLER_25_125 VGND VPWR sky130_fd_sc_hd__decap_12
XFILLER_21_342 VGND VPWR sky130_fd_sc_hd__decap_12
XFILLER_15_59 VGND VPWR sky130_fd_sc_hd__fill_2
XFILLER_15_15 VGND VPWR sky130_fd_sc_hd__decap_12
XPHY_197 VGND VPWR sky130_fd_sc_hd__tapvpwrvgnd_1
XPHY_186 VGND VPWR sky130_fd_sc_hd__tapvpwrvgnd_1
XPHY_175 VGND VPWR sky130_fd_sc_hd__tapvpwrvgnd_1
XPHY_164 VGND VPWR sky130_fd_sc_hd__tapvpwrvgnd_1
XPHY_153 VGND VPWR sky130_fd_sc_hd__tapvpwrvgnd_1
XPHY_142 VGND VPWR sky130_fd_sc_hd__tapvpwrvgnd_1
XPHY_131 VGND VPWR sky130_fd_sc_hd__tapvpwrvgnd_1
XPHY_120 VGND VPWR sky130_fd_sc_hd__tapvpwrvgnd_1
XFILLER_8_324 VGND VPWR sky130_fd_sc_hd__decap_12
XFILLER_22_117 VGND VPWR sky130_fd_sc_hd__decap_12
XPHY_0 VGND VPWR sky130_fd_sc_hd__decap_3
XFILLER_13_117 VGND VPWR sky130_fd_sc_hd__fill_1
XANTENNA_mem_right_ipin_1.sc_dff_compact_2_.sky130_fd_sc_hd__dfrbp_1_D mem_right_ipin_1.sc_dff_compact_1_.sky130_fd_sc_hd__dfrbp_1/Q
+ VGND VPWR sky130_fd_sc_hd__diode_2
XFILLER_8_154 VGND VPWR sky130_fd_sc_hd__decap_12
XFILLER_17_220 VGND VPWR sky130_fd_sc_hd__decap_12
Xclkbuf_2_0_0_prog_clk clkbuf_1_0_0_prog_clk/X clkbuf_2_0_0_prog_clk/X VGND VPWR sky130_fd_sc_hd__clkbuf_1
XFILLER_1_363 VGND VPWR sky130_fd_sc_hd__decap_3
XFILLER_5_135 VGND VPWR sky130_fd_sc_hd__decap_12
XFILLER_23_245 VGND VPWR sky130_fd_sc_hd__decap_12
XFILLER_23_59 VGND VPWR sky130_fd_sc_hd__fill_2
XFILLER_23_15 VGND VPWR sky130_fd_sc_hd__decap_12
XFILLER_9_28 VGND VPWR sky130_fd_sc_hd__fill_2
XFILLER_9_17 VGND VPWR sky130_fd_sc_hd__decap_4
XFILLER_2_138 VGND VPWR sky130_fd_sc_hd__decap_12
Xmem_right_ipin_6.sc_dff_compact_4_.sky130_fd_sc_hd__dfrbp_1 mem_right_ipin_6.sc_dff_compact_4_.sky130_fd_sc_hd__dfrbp_1/D
+ mem_right_ipin_6.sc_dff_compact_4_.sky130_fd_sc_hd__dfrbp_1/Q mem_right_ipin_6.sc_dff_compact_4_.sky130_fd_sc_hd__dfrbp_1/Q_N
+ pReset clkbuf_2_2_0_prog_clk/X VGND VPWR sky130_fd_sc_hd__dfrbp_1
XFILLER_20_215 VGND VPWR sky130_fd_sc_hd__decap_12
Xmem_left_ipin_0.sc_dff_compact_5_.sky130_fd_sc_hd__dfrbp_1 mem_left_ipin_0.sc_dff_compact_4_.sky130_fd_sc_hd__dfrbp_1/Q
+ mem_left_ipin_1.sc_dff_compact_0_.sky130_fd_sc_hd__dfrbp_1/D mem_left_ipin_0.sc_dff_compact_5_.sky130_fd_sc_hd__dfrbp_1/Q_N
+ pReset clkbuf_2_3_0_prog_clk/X VGND VPWR sky130_fd_sc_hd__dfrbp_1
XFILLER_11_215 VGND VPWR sky130_fd_sc_hd__decap_12
Xmem_right_ipin_3.sc_dff_compact_5_.sky130_fd_sc_hd__dfrbp_1 mem_right_ipin_3.sc_dff_compact_4_.sky130_fd_sc_hd__dfrbp_1/Q
+ mem_right_ipin_4.sc_dff_compact_0_.sky130_fd_sc_hd__dfrbp_1/D mem_right_ipin_3.sc_dff_compact_5_.sky130_fd_sc_hd__dfrbp_1/Q_N
+ pReset clkbuf_2_3_0_prog_clk/X VGND VPWR sky130_fd_sc_hd__dfrbp_1
XFILLER_24_80 VGND VPWR sky130_fd_sc_hd__decap_12
XANTENNA_mem_right_ipin_2.sc_dff_compact_0_.sky130_fd_sc_hd__dfrbp_1_D mem_right_ipin_1.sc_dff_compact_5_.sky130_fd_sc_hd__dfrbp_1/Q
+ VGND VPWR sky130_fd_sc_hd__diode_2
X_26_ chany_bottom_in[1] chany_top_out[1] VGND VPWR sky130_fd_sc_hd__buf_2
XFILLER_1_62 VGND VPWR sky130_fd_sc_hd__decap_12
XFILLER_24_373 VGND VPWR sky130_fd_sc_hd__decap_12
XFILLER_19_123 VGND VPWR sky130_fd_sc_hd__decap_12
XFILLER_13_9 VGND VPWR sky130_fd_sc_hd__fill_2
XFILLER_10_93 VGND VPWR sky130_fd_sc_hd__decap_12
XFILLER_6_29 VGND VPWR sky130_fd_sc_hd__fill_2
XFILLER_3_233 VGND VPWR sky130_fd_sc_hd__decap_8
XFILLER_3_299 VGND VPWR sky130_fd_sc_hd__fill_2
XFILLER_25_137 VGND VPWR sky130_fd_sc_hd__decap_12
X_09_ _09_/HI right_grid_pin_3_ VGND VPWR sky130_fd_sc_hd__conb_1
XFILLER_15_49 VGND VPWR sky130_fd_sc_hd__decap_4
XFILLER_15_27 VGND VPWR sky130_fd_sc_hd__decap_12
XANTENNA_mem_right_ipin_1.sc_dff_compact_4_.sky130_fd_sc_hd__dfrbp_1_CLK clkbuf_2_1_0_prog_clk/X
+ VGND VPWR sky130_fd_sc_hd__diode_2
XANTENNA_mem_right_ipin_0.sc_dff_compact_3_.sky130_fd_sc_hd__dfrbp_1_CLK clkbuf_2_1_0_prog_clk/X
+ VGND VPWR sky130_fd_sc_hd__diode_2
XANTENNA_mem_right_ipin_1.sc_dff_compact_5_.sky130_fd_sc_hd__dfrbp_1_D mem_right_ipin_1.sc_dff_compact_4_.sky130_fd_sc_hd__dfrbp_1/Q
+ VGND VPWR sky130_fd_sc_hd__diode_2
XPHY_198 VGND VPWR sky130_fd_sc_hd__tapvpwrvgnd_1
XFILLER_21_354 VGND VPWR sky130_fd_sc_hd__decap_12
XPHY_187 VGND VPWR sky130_fd_sc_hd__tapvpwrvgnd_1
XPHY_176 VGND VPWR sky130_fd_sc_hd__tapvpwrvgnd_1
XPHY_165 VGND VPWR sky130_fd_sc_hd__tapvpwrvgnd_1
Xmem_right_ipin_1.sc_dff_compact_0_.sky130_fd_sc_hd__dfrbp_1 mem_right_ipin_0.sc_dff_compact_5_.sky130_fd_sc_hd__dfrbp_1/Q
+ mem_right_ipin_1.sc_dff_compact_0_.sky130_fd_sc_hd__dfrbp_1/Q mem_right_ipin_1.sc_dff_compact_0_.sky130_fd_sc_hd__dfrbp_1/Q_N
+ pReset clkbuf_2_1_0_prog_clk/X VGND VPWR sky130_fd_sc_hd__dfrbp_1
XFILLER_16_137 VGND VPWR sky130_fd_sc_hd__decap_12
XPHY_154 VGND VPWR sky130_fd_sc_hd__tapvpwrvgnd_1
XPHY_143 VGND VPWR sky130_fd_sc_hd__tapvpwrvgnd_1
XPHY_132 VGND VPWR sky130_fd_sc_hd__tapvpwrvgnd_1
XPHY_121 VGND VPWR sky130_fd_sc_hd__tapvpwrvgnd_1
XPHY_110 VGND VPWR sky130_fd_sc_hd__tapvpwrvgnd_1
XANTENNA_mem_right_ipin_2.sc_dff_compact_5_.sky130_fd_sc_hd__dfrbp_1_CLK clkbuf_2_0_0_prog_clk/X
+ VGND VPWR sky130_fd_sc_hd__diode_2
XFILLER_22_129 VGND VPWR sky130_fd_sc_hd__decap_12
XFILLER_15_170 VGND VPWR sky130_fd_sc_hd__decap_12
XPHY_1 VGND VPWR sky130_fd_sc_hd__decap_3
XFILLER_21_184 VGND VPWR sky130_fd_sc_hd__decap_12
XFILLER_7_83 VGND VPWR sky130_fd_sc_hd__fill_2
XFILLER_5_306 VGND VPWR sky130_fd_sc_hd__decap_4
XFILLER_16_70 VGND VPWR sky130_fd_sc_hd__decap_12
XFILLER_12_140 VGND VPWR sky130_fd_sc_hd__fill_2
XFILLER_8_166 VGND VPWR sky130_fd_sc_hd__decap_12
XFILLER_3_19 VGND VPWR sky130_fd_sc_hd__fill_2
XFILLER_4_361 VGND VPWR sky130_fd_sc_hd__decap_12
XFILLER_1_331 VGND VPWR sky130_fd_sc_hd__decap_12
XFILLER_5_147 VGND VPWR sky130_fd_sc_hd__decap_12
XFILLER_17_232 VGND VPWR sky130_fd_sc_hd__decap_12
XANTENNA_mem_right_ipin_2.sc_dff_compact_3_.sky130_fd_sc_hd__dfrbp_1_D mem_right_ipin_2.sc_dff_compact_2_.sky130_fd_sc_hd__dfrbp_1/Q
+ VGND VPWR sky130_fd_sc_hd__diode_2
XFILLER_23_257 VGND VPWR sky130_fd_sc_hd__decap_12
XFILLER_23_27 VGND VPWR sky130_fd_sc_hd__decap_12
XFILLER_20_227 VGND VPWR sky130_fd_sc_hd__decap_12
XFILLER_1_150 VGND VPWR sky130_fd_sc_hd__fill_2
XFILLER_11_227 VGND VPWR sky130_fd_sc_hd__decap_12
XFILLER_10_260 VGND VPWR sky130_fd_sc_hd__decap_4
X_25_ chany_bottom_in[2] chany_top_out[2] VGND VPWR sky130_fd_sc_hd__buf_2
XFILLER_1_85 VGND VPWR sky130_fd_sc_hd__fill_2
XFILLER_1_74 VGND VPWR sky130_fd_sc_hd__decap_8
XFILLER_24_385 VGND VPWR sky130_fd_sc_hd__fill_2
XFILLER_3_245 VGND VPWR sky130_fd_sc_hd__decap_12
XFILLER_19_135 VGND VPWR sky130_fd_sc_hd__decap_12
XFILLER_15_363 VGND VPWR sky130_fd_sc_hd__decap_3
XANTENNA_clkbuf_2_2_0_prog_clk_A clkbuf_2_3_0_prog_clk/A VGND VPWR sky130_fd_sc_hd__diode_2
XANTENNA_mem_right_ipin_3.sc_dff_compact_1_.sky130_fd_sc_hd__dfrbp_1_D mem_right_ipin_3.sc_dff_compact_0_.sky130_fd_sc_hd__dfrbp_1/Q
+ VGND VPWR sky130_fd_sc_hd__diode_2
X_08_ _08_/HI left_grid_pin_0_ VGND VPWR sky130_fd_sc_hd__conb_1
XFILLER_25_149 VGND VPWR sky130_fd_sc_hd__decap_6
XFILLER_18_190 VGND VPWR sky130_fd_sc_hd__decap_12
XFILLER_16_149 VGND VPWR sky130_fd_sc_hd__decap_4
XFILLER_16_105 VGND VPWR sky130_fd_sc_hd__decap_12
XPHY_100 VGND VPWR sky130_fd_sc_hd__tapvpwrvgnd_1
XFILLER_0_215 VGND VPWR sky130_fd_sc_hd__fill_2
XPHY_199 VGND VPWR sky130_fd_sc_hd__tapvpwrvgnd_1
XPHY_188 VGND VPWR sky130_fd_sc_hd__tapvpwrvgnd_1
XPHY_177 VGND VPWR sky130_fd_sc_hd__tapvpwrvgnd_1
XPHY_166 VGND VPWR sky130_fd_sc_hd__tapvpwrvgnd_1
XPHY_155 VGND VPWR sky130_fd_sc_hd__tapvpwrvgnd_1
XFILLER_15_182 VGND VPWR sky130_fd_sc_hd__fill_1
XPHY_144 VGND VPWR sky130_fd_sc_hd__tapvpwrvgnd_1
XPHY_133 VGND VPWR sky130_fd_sc_hd__tapvpwrvgnd_1
XPHY_122 VGND VPWR sky130_fd_sc_hd__tapvpwrvgnd_1
XFILLER_8_337 VGND VPWR sky130_fd_sc_hd__decap_12
XPHY_111 VGND VPWR sky130_fd_sc_hd__tapvpwrvgnd_1
XPHY_2 VGND VPWR sky130_fd_sc_hd__decap_3
XFILLER_21_196 VGND VPWR sky130_fd_sc_hd__decap_12
XFILLER_7_62 VGND VPWR sky130_fd_sc_hd__decap_12
XFILLER_16_93 VGND VPWR sky130_fd_sc_hd__decap_12
XFILLER_16_82 VGND VPWR sky130_fd_sc_hd__decap_8
XFILLER_12_174 VGND VPWR sky130_fd_sc_hd__decap_3
XFILLER_12_152 VGND VPWR sky130_fd_sc_hd__fill_1
XFILLER_8_178 VGND VPWR sky130_fd_sc_hd__decap_4
XFILLER_8_134 VGND VPWR sky130_fd_sc_hd__decap_12
XFILLER_12_29 VGND VPWR sky130_fd_sc_hd__fill_2
XFILLER_4_373 VGND VPWR sky130_fd_sc_hd__decap_12
XFILLER_1_343 VGND VPWR sky130_fd_sc_hd__decap_12
XFILLER_5_159 VGND VPWR sky130_fd_sc_hd__decap_8
XANTENNA_mem_right_ipin_5.sc_dff_compact_0_.sky130_fd_sc_hd__dfrbp_1_CLK clkbuf_2_2_0_prog_clk/X
+ VGND VPWR sky130_fd_sc_hd__diode_2
XFILLER_23_269 VGND VPWR sky130_fd_sc_hd__decap_12
XFILLER_23_39 VGND VPWR sky130_fd_sc_hd__decap_12
XANTENNA_mem_right_ipin_7.sc_dff_compact_2_.sky130_fd_sc_hd__dfrbp_1_CLK clkbuf_2_2_0_prog_clk/X
+ VGND VPWR sky130_fd_sc_hd__diode_2
XANTENNA_mem_right_ipin_6.sc_dff_compact_1_.sky130_fd_sc_hd__dfrbp_1_CLK clkbuf_2_0_0_prog_clk/X
+ VGND VPWR sky130_fd_sc_hd__diode_2
XFILLER_3_9 VGND VPWR sky130_fd_sc_hd__fill_2
XFILLER_13_50 VGND VPWR sky130_fd_sc_hd__decap_3
XFILLER_1_184 VGND VPWR sky130_fd_sc_hd__fill_2
XFILLER_20_239 VGND VPWR sky130_fd_sc_hd__decap_12
XFILLER_13_291 VGND VPWR sky130_fd_sc_hd__fill_2
XFILLER_11_239 VGND VPWR sky130_fd_sc_hd__decap_4
XFILLER_9_295 VGND VPWR sky130_fd_sc_hd__fill_2
XFILLER_9_262 VGND VPWR sky130_fd_sc_hd__fill_2
XFILLER_9_240 VGND VPWR sky130_fd_sc_hd__decap_4
XANTENNA_mem_right_ipin_3.sc_dff_compact_4_.sky130_fd_sc_hd__dfrbp_1_D mem_right_ipin_3.sc_dff_compact_3_.sky130_fd_sc_hd__dfrbp_1/Q
+ VGND VPWR sky130_fd_sc_hd__diode_2
XFILLER_24_93 VGND VPWR sky130_fd_sc_hd__decap_12
XFILLER_19_306 VGND VPWR sky130_fd_sc_hd__decap_12
XFILLER_20_29 VGND VPWR sky130_fd_sc_hd__fill_2
XFILLER_18_361 VGND VPWR sky130_fd_sc_hd__decap_12
XANTENNA_mem_left_ipin_0.sc_dff_compact_2_.sky130_fd_sc_hd__dfrbp_1_CLK clkbuf_2_3_0_prog_clk/X
+ VGND VPWR sky130_fd_sc_hd__diode_2
XFILLER_6_276 VGND VPWR sky130_fd_sc_hd__decap_12
XFILLER_6_243 VGND VPWR sky130_fd_sc_hd__decap_12
X_24_ chany_bottom_in[3] chany_top_out[3] VGND VPWR sky130_fd_sc_hd__buf_2
Xmem_right_ipin_5.sc_dff_compact_3_.sky130_fd_sc_hd__dfrbp_1 mem_right_ipin_5.sc_dff_compact_2_.sky130_fd_sc_hd__dfrbp_1/Q
+ mem_right_ipin_5.sc_dff_compact_3_.sky130_fd_sc_hd__dfrbp_1/Q mem_right_ipin_5.sc_dff_compact_3_.sky130_fd_sc_hd__dfrbp_1/Q_N
+ pReset clkbuf_2_0_0_prog_clk/X VGND VPWR sky130_fd_sc_hd__dfrbp_1
XFILLER_10_40 VGND VPWR sky130_fd_sc_hd__fill_1
XFILLER_3_257 VGND VPWR sky130_fd_sc_hd__decap_8
XFILLER_3_268 VGND VPWR sky130_fd_sc_hd__fill_2
XFILLER_19_147 VGND VPWR sky130_fd_sc_hd__decap_12
XFILLER_15_331 VGND VPWR sky130_fd_sc_hd__decap_12
Xmem_right_ipin_2.sc_dff_compact_4_.sky130_fd_sc_hd__dfrbp_1 mem_right_ipin_2.sc_dff_compact_3_.sky130_fd_sc_hd__dfrbp_1/Q
+ mem_right_ipin_2.sc_dff_compact_5_.sky130_fd_sc_hd__dfrbp_1/D mem_right_ipin_2.sc_dff_compact_4_.sky130_fd_sc_hd__dfrbp_1/Q_N
+ pReset clkbuf_2_0_0_prog_clk/X VGND VPWR sky130_fd_sc_hd__dfrbp_1
XFILLER_25_106 VGND VPWR sky130_fd_sc_hd__decap_12
XFILLER_21_367 VGND VPWR sky130_fd_sc_hd__decap_12
X_07_ _07_/HI left_grid_pin_10_ VGND VPWR sky130_fd_sc_hd__conb_1
XFILLER_0_249 VGND VPWR sky130_fd_sc_hd__decap_12
XPHY_189 VGND VPWR sky130_fd_sc_hd__tapvpwrvgnd_1
XPHY_178 VGND VPWR sky130_fd_sc_hd__tapvpwrvgnd_1
XPHY_167 VGND VPWR sky130_fd_sc_hd__tapvpwrvgnd_1
XPHY_156 VGND VPWR sky130_fd_sc_hd__tapvpwrvgnd_1
XFILLER_16_117 VGND VPWR sky130_fd_sc_hd__decap_12
XPHY_145 VGND VPWR sky130_fd_sc_hd__tapvpwrvgnd_1
XFILLER_12_323 VGND VPWR sky130_fd_sc_hd__decap_12
XPHY_134 VGND VPWR sky130_fd_sc_hd__tapvpwrvgnd_1
XPHY_123 VGND VPWR sky130_fd_sc_hd__tapvpwrvgnd_1