* NGSPICE file created from sb_0__0_.ext - technology: sky130A

* Black-box entry subcircuit for sky130_fd_sc_hd__decap_12 abstract view
.subckt sky130_fd_sc_hd__decap_12 VGND VPWR
.ends

* Black-box entry subcircuit for sky130_fd_sc_hd__decap_4 abstract view
.subckt sky130_fd_sc_hd__decap_4 VGND VPWR
.ends

* Black-box entry subcircuit for sky130_fd_sc_hd__fill_2 abstract view
.subckt sky130_fd_sc_hd__fill_2 VGND VPWR
.ends

* Black-box entry subcircuit for sky130_fd_sc_hd__diode_2 abstract view
.subckt sky130_fd_sc_hd__diode_2 DIODE VGND VPWR
.ends

* Black-box entry subcircuit for sky130_fd_sc_hd__fill_1 abstract view
.subckt sky130_fd_sc_hd__fill_1 VGND VPWR
.ends

* Black-box entry subcircuit for sky130_fd_sc_hd__decap_8 abstract view
.subckt sky130_fd_sc_hd__decap_8 VGND VPWR
.ends

* Black-box entry subcircuit for sky130_fd_sc_hd__decap_6 abstract view
.subckt sky130_fd_sc_hd__decap_6 VGND VPWR
.ends

* Black-box entry subcircuit for sky130_fd_sc_hd__inv_8 abstract view
.subckt sky130_fd_sc_hd__inv_8 A Y VGND VPWR
.ends

* Black-box entry subcircuit for sky130_fd_sc_hd__ebufn_1 abstract view
.subckt sky130_fd_sc_hd__ebufn_1 A TE_B Z VGND VPWR
.ends

* Black-box entry subcircuit for sky130_fd_sc_hd__dfrbp_1 abstract view
.subckt sky130_fd_sc_hd__dfrbp_1 D Q Q_N RESET_B CLK VGND VPWR
.ends

* Black-box entry subcircuit for sky130_fd_sc_hd__inv_1 abstract view
.subckt sky130_fd_sc_hd__inv_1 A Y VGND VPWR
.ends

* Black-box entry subcircuit for sky130_fd_sc_hd__decap_3 abstract view
.subckt sky130_fd_sc_hd__decap_3 VGND VPWR
.ends

* Black-box entry subcircuit for sky130_fd_sc_hd__tapvpwrvgnd_1 abstract view
.subckt sky130_fd_sc_hd__tapvpwrvgnd_1 VGND VPWR
.ends

* Black-box entry subcircuit for sky130_fd_sc_hd__buf_2 abstract view
.subckt sky130_fd_sc_hd__buf_2 A X VGND VPWR
.ends

* Black-box entry subcircuit for sky130_fd_sc_hd__clkbuf_1 abstract view
.subckt sky130_fd_sc_hd__clkbuf_1 A X VGND VPWR
.ends

* Black-box entry subcircuit for sky130_fd_sc_hd__conb_1 abstract view
.subckt sky130_fd_sc_hd__conb_1 HI LO VGND VPWR
.ends

* Black-box entry subcircuit for sky130_fd_sc_hd__clkbuf_16 abstract view
.subckt sky130_fd_sc_hd__clkbuf_16 A X VGND VPWR
.ends

.subckt sb_0__0_ ccff_head ccff_tail chanx_right_in[0] chanx_right_in[1] chanx_right_in[2]
+ chanx_right_in[3] chanx_right_in[4] chanx_right_in[5] chanx_right_in[6] chanx_right_in[7]
+ chanx_right_in[8] chanx_right_out[0] chanx_right_out[1] chanx_right_out[2] chanx_right_out[3]
+ chanx_right_out[4] chanx_right_out[5] chanx_right_out[6] chanx_right_out[7] chanx_right_out[8]
+ chany_top_in[0] chany_top_in[1] chany_top_in[2] chany_top_in[3] chany_top_in[4]
+ chany_top_in[5] chany_top_in[6] chany_top_in[7] chany_top_in[8] chany_top_out[0]
+ chany_top_out[1] chany_top_out[2] chany_top_out[3] chany_top_out[4] chany_top_out[5]
+ chany_top_out[6] chany_top_out[7] chany_top_out[8] pReset prog_clk right_bottom_grid_pin_11_
+ right_bottom_grid_pin_13_ right_bottom_grid_pin_15_ right_bottom_grid_pin_1_ right_bottom_grid_pin_3_
+ right_bottom_grid_pin_5_ right_bottom_grid_pin_7_ right_bottom_grid_pin_9_ right_top_grid_pin_10_
+ top_left_grid_pin_11_ top_left_grid_pin_13_ top_left_grid_pin_15_ top_left_grid_pin_1_
+ top_left_grid_pin_3_ top_left_grid_pin_5_ top_left_grid_pin_7_ top_left_grid_pin_9_
+ top_right_grid_pin_11_ VPWR VGND
XFILLER_22_166 VGND VPWR sky130_fd_sc_hd__decap_12
XFILLER_13_155 VGND VPWR sky130_fd_sc_hd__decap_4
XFILLER_13_188 VGND VPWR sky130_fd_sc_hd__fill_2
XANTENNA_mux_right_track_8.mux_l2_in_0_.TGATE_1_.sky130_fd_sc_hd__ebufn_1_A _172_/HI
+ VGND VPWR sky130_fd_sc_hd__diode_2
XFILLER_27_214 VGND VPWR sky130_fd_sc_hd__fill_2
XFILLER_12_32 VGND VPWR sky130_fd_sc_hd__fill_1
XFILLER_12_65 VGND VPWR sky130_fd_sc_hd__fill_2
XFILLER_37_62 VGND VPWR sky130_fd_sc_hd__decap_12
XFILLER_37_51 VGND VPWR sky130_fd_sc_hd__decap_8
XFILLER_33_217 VGND VPWR sky130_fd_sc_hd__decap_8
XFILLER_5_162 VGND VPWR sky130_fd_sc_hd__fill_2
XANTENNA__124__A _124_/A VGND VPWR sky130_fd_sc_hd__diode_2
XFILLER_5_184 VGND VPWR sky130_fd_sc_hd__decap_6
X_131_ _131_/A _131_/Y VGND VPWR sky130_fd_sc_hd__inv_8
XFILLER_23_53 VGND VPWR sky130_fd_sc_hd__fill_2
XANTENNA__119__A _119_/A VGND VPWR sky130_fd_sc_hd__diode_2
XFILLER_21_209 VGND VPWR sky130_fd_sc_hd__decap_6
Xmux_right_track_8.mux_l2_in_0_.TGATE_1_.sky130_fd_sc_hd__ebufn_1 _172_/HI _119_/Y
+ mux_right_track_8.tap_buf4_0_.sky130_fd_sc_hd__inv_1/A VGND VPWR sky130_fd_sc_hd__ebufn_1
XANTENNA_mem_top_track_10.sc_dff_compact_1_.sky130_fd_sc_hd__dfrbp_1_D _161_/A VGND
+ VPWR sky130_fd_sc_hd__diode_2
XANTENNA_clkbuf_2_1_0_prog_clk_A clkbuf_2_1_0_prog_clk/A VGND VPWR sky130_fd_sc_hd__diode_2
XFILLER_18_64 VGND VPWR sky130_fd_sc_hd__fill_2
XFILLER_18_97 VGND VPWR sky130_fd_sc_hd__fill_2
XANTENNA_mux_top_track_16.mux_l2_in_0_.TGATE_0_.sky130_fd_sc_hd__ebufn_1_TE_B _098_/Y
+ VGND VPWR sky130_fd_sc_hd__diode_2
Xmem_top_track_16.sc_dff_compact_0_.sky130_fd_sc_hd__dfrbp_1 _094_/A _100_/A _101_/A
+ _138_/Y clkbuf_2_3_0_prog_clk/X VGND VPWR sky130_fd_sc_hd__dfrbp_1
X_114_ _114_/A _114_/Y VGND VPWR sky130_fd_sc_hd__inv_8
XANTENNA_mux_right_track_12.mux_l2_in_0_.TGATE_1_.sky130_fd_sc_hd__ebufn_1_A _166_/HI
+ VGND VPWR sky130_fd_sc_hd__diode_2
XFILLER_38_106 VGND VPWR sky130_fd_sc_hd__decap_12
Xmux_top_track_10.tap_buf4_0_.sky130_fd_sc_hd__inv_1 mux_top_track_10.tap_buf4_0_.sky130_fd_sc_hd__inv_1/A
+ _194_/A VGND VPWR sky130_fd_sc_hd__inv_1
XANTENNA_mem_top_track_14.sc_dff_compact_1_.sky130_fd_sc_hd__dfrbp_1_CLK clkbuf_2_2_0_prog_clk/X
+ VGND VPWR sky130_fd_sc_hd__diode_2
Xmem_top_track_2.sc_dff_compact_0_.sky130_fd_sc_hd__dfrbp_1 _142_/A _144_/A _143_/A
+ _138_/Y clkbuf_2_1_0_prog_clk/X VGND VPWR sky130_fd_sc_hd__dfrbp_1
XFILLER_29_106 VGND VPWR sky130_fd_sc_hd__decap_3
Xmem_right_track_16.sc_dff_compact_0_.sky130_fd_sc_hd__dfrbp_1 _130_/A _136_/A _137_/A
+ _138_/Y clkbuf_2_2_0_prog_clk/X VGND VPWR sky130_fd_sc_hd__dfrbp_1
XFILLER_20_32 VGND VPWR sky130_fd_sc_hd__decap_12
XFILLER_20_76 VGND VPWR sky130_fd_sc_hd__decap_6
XFILLER_29_41 VGND VPWR sky130_fd_sc_hd__decap_12
XFILLER_29_74 VGND VPWR sky130_fd_sc_hd__decap_12
XFILLER_6_89 VGND VPWR sky130_fd_sc_hd__decap_3
XANTENNA__132__A _132_/A VGND VPWR sky130_fd_sc_hd__diode_2
XANTENNA_mux_top_track_12.mux_l1_in_0_.TGATE_0_.sky130_fd_sc_hd__ebufn_1_TE_B _092_/Y
+ VGND VPWR sky130_fd_sc_hd__diode_2
XFILLER_34_175 VGND VPWR sky130_fd_sc_hd__fill_1
Xmux_right_track_10.mux_l1_in_0_.TGATE_0_.sky130_fd_sc_hd__ebufn_1 mux_right_track_10.INVTX1_0_.sky130_fd_sc_hd__inv_1/Y
+ _124_/Y mux_right_track_10.mux_l1_in_0_.TGATE_0_.sky130_fd_sc_hd__ebufn_1/Z VGND
+ VPWR sky130_fd_sc_hd__ebufn_1
Xmux_top_track_4.INVTX1_0_.sky130_fd_sc_hd__inv_1 top_left_grid_pin_5_ mux_top_track_4.INVTX1_0_.sky130_fd_sc_hd__inv_1/Y
+ VGND VPWR sky130_fd_sc_hd__inv_1
XFILLER_31_53 VGND VPWR sky130_fd_sc_hd__decap_8
XFILLER_31_20 VGND VPWR sky130_fd_sc_hd__fill_2
XFILLER_31_86 VGND VPWR sky130_fd_sc_hd__decap_12
Xmux_top_track_8.mux_l2_in_0_.TGATE_1_.sky130_fd_sc_hd__ebufn_1 _181_/HI _156_/Y mux_top_track_8.tap_buf4_0_.sky130_fd_sc_hd__inv_1/A
+ VGND VPWR sky130_fd_sc_hd__ebufn_1
XFILLER_31_123 VGND VPWR sky130_fd_sc_hd__fill_2
XFILLER_16_186 VGND VPWR sky130_fd_sc_hd__decap_8
XANTENNA__127__A _127_/A VGND VPWR sky130_fd_sc_hd__diode_2
XPHY_170 VGND VPWR sky130_fd_sc_hd__tapvpwrvgnd_1
XPHY_192 VGND VPWR sky130_fd_sc_hd__tapvpwrvgnd_1
XPHY_181 VGND VPWR sky130_fd_sc_hd__tapvpwrvgnd_1
XFILLER_9_105 VGND VPWR sky130_fd_sc_hd__fill_2
XFILLER_13_123 VGND VPWR sky130_fd_sc_hd__fill_2
XFILLER_3_46 VGND VPWR sky130_fd_sc_hd__fill_2
XFILLER_36_226 VGND VPWR sky130_fd_sc_hd__fill_2
XANTENNA_mux_top_track_8.mux_l1_in_0_.TGATE_1_.sky130_fd_sc_hd__ebufn_1_A mux_top_track_8.INVTX1_1_.sky130_fd_sc_hd__inv_1/Y
+ VGND VPWR sky130_fd_sc_hd__diode_2
XFILLER_27_226 VGND VPWR sky130_fd_sc_hd__fill_2
XFILLER_10_126 VGND VPWR sky130_fd_sc_hd__fill_1
XFILLER_12_11 VGND VPWR sky130_fd_sc_hd__decap_8
XANTENNA_mux_top_track_6.tap_buf4_0_.sky130_fd_sc_hd__inv_1_A mux_top_track_6.tap_buf4_0_.sky130_fd_sc_hd__inv_1/A
+ VGND VPWR sky130_fd_sc_hd__diode_2
XFILLER_37_74 VGND VPWR sky130_fd_sc_hd__decap_12
XFILLER_18_204 VGND VPWR sky130_fd_sc_hd__decap_8
XFILLER_18_215 VGND VPWR sky130_fd_sc_hd__decap_12
XFILLER_5_196 VGND VPWR sky130_fd_sc_hd__decap_3
XFILLER_5_174 VGND VPWR sky130_fd_sc_hd__fill_2
XANTENNA__140__A _140_/A VGND VPWR sky130_fd_sc_hd__diode_2
XFILLER_15_207 VGND VPWR sky130_fd_sc_hd__fill_2
X_130_ _130_/A _130_/Y VGND VPWR sky130_fd_sc_hd__inv_8
XFILLER_15_218 VGND VPWR sky130_fd_sc_hd__fill_2
XFILLER_23_10 VGND VPWR sky130_fd_sc_hd__decap_12
XFILLER_23_98 VGND VPWR sky130_fd_sc_hd__fill_2
XFILLER_0_69 VGND VPWR sky130_fd_sc_hd__fill_2
Xmux_top_track_12.mux_l1_in_0_.TGATE_1_.sky130_fd_sc_hd__ebufn_1 mux_top_track_12.INVTX1_1_.sky130_fd_sc_hd__inv_1/Y
+ _093_/Y mux_top_track_12.mux_l2_in_0_.TGATE_0_.sky130_fd_sc_hd__ebufn_1/A VGND VPWR
+ sky130_fd_sc_hd__ebufn_1
XFILLER_9_45 VGND VPWR sky130_fd_sc_hd__fill_2
XANTENNA__135__A _135_/A VGND VPWR sky130_fd_sc_hd__diode_2
XANTENNA_mux_top_track_14.mux_l2_in_0_.TGATE_0_.sky130_fd_sc_hd__ebufn_1_A mux_top_track_14.mux_l1_in_0_.TGATE_1_.sky130_fd_sc_hd__ebufn_1/Z
+ VGND VPWR sky130_fd_sc_hd__diode_2
XFILLER_18_32 VGND VPWR sky130_fd_sc_hd__decap_12
XANTENNA_mux_top_track_12.INVTX1_1_.sky130_fd_sc_hd__inv_1_A chanx_right_in[7] VGND
+ VPWR sky130_fd_sc_hd__diode_2
X_113_ _113_/A _113_/Y VGND VPWR sky130_fd_sc_hd__inv_8
XFILLER_38_118 VGND VPWR sky130_fd_sc_hd__decap_6
XFILLER_15_7 VGND VPWR sky130_fd_sc_hd__decap_12
XFILLER_37_184 VGND VPWR sky130_fd_sc_hd__decap_12
XFILLER_37_140 VGND VPWR sky130_fd_sc_hd__fill_2
Xmux_right_track_6.mux_l2_in_0_.TGATE_0_.sky130_fd_sc_hd__ebufn_1 mux_right_track_6.mux_l2_in_0_.TGATE_0_.sky130_fd_sc_hd__ebufn_1/A
+ _114_/Y mux_right_track_6.tap_buf4_0_.sky130_fd_sc_hd__inv_1/A VGND VPWR sky130_fd_sc_hd__ebufn_1
XFILLER_4_206 VGND VPWR sky130_fd_sc_hd__decap_8
XFILLER_20_44 VGND VPWR sky130_fd_sc_hd__decap_12
XFILLER_20_99 VGND VPWR sky130_fd_sc_hd__fill_1
XFILLER_29_53 VGND VPWR sky130_fd_sc_hd__decap_8
XFILLER_29_86 VGND VPWR sky130_fd_sc_hd__decap_12
XFILLER_28_151 VGND VPWR sky130_fd_sc_hd__fill_2
XFILLER_28_195 VGND VPWR sky130_fd_sc_hd__decap_12
XANTENNA_mem_top_track_2.sc_dff_compact_0_.sky130_fd_sc_hd__dfrbp_1_RESET_B _138_/Y
+ VGND VPWR sky130_fd_sc_hd__diode_2
XFILLER_19_184 VGND VPWR sky130_fd_sc_hd__decap_12
XFILLER_15_66 VGND VPWR sky130_fd_sc_hd__decap_3
XFILLER_31_98 VGND VPWR sky130_fd_sc_hd__decap_12
XANTENNA_mem_top_track_4.sc_dff_compact_1_.sky130_fd_sc_hd__dfrbp_1_RESET_B _138_/Y
+ VGND VPWR sky130_fd_sc_hd__diode_2
XPHY_193 VGND VPWR sky130_fd_sc_hd__tapvpwrvgnd_1
XFILLER_16_154 VGND VPWR sky130_fd_sc_hd__decap_3
XPHY_160 VGND VPWR sky130_fd_sc_hd__tapvpwrvgnd_1
XPHY_171 VGND VPWR sky130_fd_sc_hd__tapvpwrvgnd_1
XPHY_182 VGND VPWR sky130_fd_sc_hd__tapvpwrvgnd_1
XANTENNA__143__A _143_/A VGND VPWR sky130_fd_sc_hd__diode_2
XFILLER_22_102 VGND VPWR sky130_fd_sc_hd__decap_3
XANTENNA_mux_right_track_8.mux_l1_in_0_.TGATE_1_.sky130_fd_sc_hd__ebufn_1_A mux_right_track_8.INVTX1_1_.sky130_fd_sc_hd__inv_1/Y
+ VGND VPWR sky130_fd_sc_hd__diode_2
XFILLER_26_32 VGND VPWR sky130_fd_sc_hd__fill_1
XFILLER_13_113 VGND VPWR sky130_fd_sc_hd__fill_2
XFILLER_26_87 VGND VPWR sky130_fd_sc_hd__fill_1
XFILLER_3_58 VGND VPWR sky130_fd_sc_hd__decap_3
XANTENNA__138__A pReset VGND VPWR sky130_fd_sc_hd__diode_2
Xmux_top_track_6.mux_l2_in_0_.TGATE_0_.sky130_fd_sc_hd__ebufn_1 mux_top_track_6.mux_l1_in_0_.TGATE_0_.sky130_fd_sc_hd__ebufn_1/Z
+ _154_/Y mux_top_track_6.tap_buf4_0_.sky130_fd_sc_hd__inv_1/A VGND VPWR sky130_fd_sc_hd__ebufn_1
XANTENNA_mux_top_track_4.INVTX1_0_.sky130_fd_sc_hd__inv_1_A top_left_grid_pin_5_ VGND
+ VPWR sky130_fd_sc_hd__diode_2
XANTENNA_mux_right_track_6.tap_buf4_0_.sky130_fd_sc_hd__inv_1_A mux_right_track_6.tap_buf4_0_.sky130_fd_sc_hd__inv_1/A
+ VGND VPWR sky130_fd_sc_hd__diode_2
Xmux_right_track_2.INVTX1_1_.sky130_fd_sc_hd__inv_1 right_bottom_grid_pin_1_ mux_right_track_2.INVTX1_1_.sky130_fd_sc_hd__inv_1/Y
+ VGND VPWR sky130_fd_sc_hd__inv_1
XFILLER_12_23 VGND VPWR sky130_fd_sc_hd__decap_8
XANTENNA_mem_top_track_12.sc_dff_compact_0_.sky130_fd_sc_hd__dfrbp_1_D _159_/A VGND
+ VPWR sky130_fd_sc_hd__diode_2
XFILLER_37_86 VGND VPWR sky130_fd_sc_hd__decap_12
XFILLER_33_208 VGND VPWR sky130_fd_sc_hd__decap_6
Xmem_right_track_8.sc_dff_compact_1_.sky130_fd_sc_hd__dfrbp_1 _120_/A _118_/A _119_/A
+ _138_/Y clkbuf_2_0_0_prog_clk/X VGND VPWR sky130_fd_sc_hd__dfrbp_1
XFILLER_18_227 VGND VPWR sky130_fd_sc_hd__fill_1
XFILLER_5_131 VGND VPWR sky130_fd_sc_hd__fill_2
XANTENNA_mux_top_track_8.mux_l2_in_0_.TGATE_0_.sky130_fd_sc_hd__ebufn_1_TE_B _155_/Y
+ VGND VPWR sky130_fd_sc_hd__diode_2
XANTENNA_mux_top_track_16.mux_l2_in_0_.TGATE_1_.sky130_fd_sc_hd__ebufn_1_TE_B _099_/Y
+ VGND VPWR sky130_fd_sc_hd__diode_2
XFILLER_24_219 VGND VPWR sky130_fd_sc_hd__decap_8
XFILLER_23_22 VGND VPWR sky130_fd_sc_hd__decap_8
XFILLER_3_3 VGND VPWR sky130_fd_sc_hd__decap_3
XFILLER_2_101 VGND VPWR sky130_fd_sc_hd__fill_2
XANTENNA_mux_top_track_10.mux_l2_in_0_.TGATE_0_.sky130_fd_sc_hd__ebufn_1_TE_B _159_/Y
+ VGND VPWR sky130_fd_sc_hd__diode_2
XANTENNA_mem_right_track_16.sc_dff_compact_0_.sky130_fd_sc_hd__dfrbp_1_RESET_B _138_/Y
+ VGND VPWR sky130_fd_sc_hd__diode_2
XFILLER_9_13 VGND VPWR sky130_fd_sc_hd__fill_2
X_189_ _189_/A chanx_right_out[1] VGND VPWR sky130_fd_sc_hd__buf_2
XFILLER_36_3 VGND VPWR sky130_fd_sc_hd__decap_4
XANTENNA__151__A _151_/A VGND VPWR sky130_fd_sc_hd__diode_2
XANTENNA_mux_right_track_12.mux_l1_in_0_.TGATE_1_.sky130_fd_sc_hd__ebufn_1_A mux_right_track_12.INVTX1_1_.sky130_fd_sc_hd__inv_1/Y
+ VGND VPWR sky130_fd_sc_hd__diode_2
XFILLER_20_211 VGND VPWR sky130_fd_sc_hd__decap_3
XANTENNA_mux_top_track_4.mux_l1_in_0_.TGATE_0_.sky130_fd_sc_hd__ebufn_1_TE_B _150_/Y
+ VGND VPWR sky130_fd_sc_hd__diode_2
XFILLER_18_44 VGND VPWR sky130_fd_sc_hd__decap_12
Xmux_top_track_4.tap_buf4_0_.sky130_fd_sc_hd__inv_1 mux_top_track_4.tap_buf4_0_.sky130_fd_sc_hd__inv_1/A
+ _197_/A VGND VPWR sky130_fd_sc_hd__inv_1
XFILLER_34_32 VGND VPWR sky130_fd_sc_hd__fill_2
XANTENNA_mux_top_track_12.mux_l1_in_0_.TGATE_1_.sky130_fd_sc_hd__ebufn_1_TE_B _093_/Y
+ VGND VPWR sky130_fd_sc_hd__diode_2
XANTENNA_mux_right_track_8.mux_l1_in_0_.TGATE_0_.sky130_fd_sc_hd__ebufn_1_TE_B _120_/Y
+ VGND VPWR sky130_fd_sc_hd__diode_2
XFILLER_11_222 VGND VPWR sky130_fd_sc_hd__decap_6
X_112_ _112_/A _112_/Y VGND VPWR sky130_fd_sc_hd__inv_8
XANTENNA__146__A _146_/A VGND VPWR sky130_fd_sc_hd__diode_2
Xmux_top_track_10.mux_l1_in_0_.TGATE_0_.sky130_fd_sc_hd__ebufn_1 mux_top_track_10.INVTX1_0_.sky130_fd_sc_hd__inv_1/Y
+ _161_/Y mux_top_track_10.mux_l1_in_0_.TGATE_1_.sky130_fd_sc_hd__ebufn_1/Z VGND VPWR
+ sky130_fd_sc_hd__ebufn_1
XFILLER_29_119 VGND VPWR sky130_fd_sc_hd__decap_3
XFILLER_37_196 VGND VPWR sky130_fd_sc_hd__decap_12
XFILLER_4_218 VGND VPWR sky130_fd_sc_hd__decap_8
XANTENNA_clkbuf_1_0_0_prog_clk_A clkbuf_0_prog_clk/X VGND VPWR sky130_fd_sc_hd__diode_2
XFILLER_20_56 VGND VPWR sky130_fd_sc_hd__decap_3
XFILLER_29_98 VGND VPWR sky130_fd_sc_hd__decap_8
XFILLER_6_14 VGND VPWR sky130_fd_sc_hd__decap_12
XFILLER_19_174 VGND VPWR sky130_fd_sc_hd__fill_2
XFILLER_19_196 VGND VPWR sky130_fd_sc_hd__decap_12
XFILLER_25_111 VGND VPWR sky130_fd_sc_hd__fill_2
XFILLER_16_166 VGND VPWR sky130_fd_sc_hd__decap_8
XPHY_194 VGND VPWR sky130_fd_sc_hd__tapvpwrvgnd_1
XPHY_150 VGND VPWR sky130_fd_sc_hd__tapvpwrvgnd_1
XPHY_161 VGND VPWR sky130_fd_sc_hd__tapvpwrvgnd_1
XPHY_172 VGND VPWR sky130_fd_sc_hd__tapvpwrvgnd_1
XPHY_183 VGND VPWR sky130_fd_sc_hd__tapvpwrvgnd_1
Xmem_top_track_12.sc_dff_compact_0_.sky130_fd_sc_hd__dfrbp_1 _159_/A _092_/A _093_/A
+ _138_/Y clkbuf_2_0_0_prog_clk/X VGND VPWR sky130_fd_sc_hd__dfrbp_1
Xclkbuf_2_1_0_prog_clk clkbuf_2_1_0_prog_clk/A clkbuf_2_1_0_prog_clk/X VGND VPWR sky130_fd_sc_hd__clkbuf_1
XFILLER_7_90 VGND VPWR sky130_fd_sc_hd__decap_3
XANTENNA_mem_right_track_6.sc_dff_compact_0_.sky130_fd_sc_hd__dfrbp_1_CLK clkbuf_2_0_0_prog_clk/X
+ VGND VPWR sky130_fd_sc_hd__diode_2
XANTENNA_mem_right_track_16.sc_dff_compact_1_.sky130_fd_sc_hd__dfrbp_1_D _136_/A VGND
+ VPWR sky130_fd_sc_hd__diode_2
XFILLER_26_11 VGND VPWR sky130_fd_sc_hd__decap_12
XFILLER_13_169 VGND VPWR sky130_fd_sc_hd__fill_2
Xmem_right_track_12.sc_dff_compact_0_.sky130_fd_sc_hd__dfrbp_1 _122_/A _128_/A _129_/A
+ _138_/Y clkbuf_2_0_0_prog_clk/X VGND VPWR sky130_fd_sc_hd__dfrbp_1
Xmux_right_track_16.INVTX1_0_.sky130_fd_sc_hd__inv_1 chany_top_in[7] mux_right_track_16.INVTX1_0_.sky130_fd_sc_hd__inv_1/Y
+ VGND VPWR sky130_fd_sc_hd__inv_1
XANTENNA__154__A _154_/A VGND VPWR sky130_fd_sc_hd__diode_2
XFILLER_10_139 VGND VPWR sky130_fd_sc_hd__fill_2
XFILLER_37_98 VGND VPWR sky130_fd_sc_hd__decap_12
XANTENNA_mux_top_track_6.mux_l2_in_0_.TGATE_1_.sky130_fd_sc_hd__ebufn_1_A _180_/HI
+ VGND VPWR sky130_fd_sc_hd__diode_2
XANTENNA__149__A _149_/A VGND VPWR sky130_fd_sc_hd__diode_2
XFILLER_4_91 VGND VPWR sky130_fd_sc_hd__fill_1
Xmux_right_track_6.mux_l1_in_0_.TGATE_1_.sky130_fd_sc_hd__ebufn_1 mux_right_track_6.INVTX1_1_.sky130_fd_sc_hd__inv_1/Y
+ _117_/Y mux_right_track_6.mux_l2_in_0_.TGATE_0_.sky130_fd_sc_hd__ebufn_1/A VGND
+ VPWR sky130_fd_sc_hd__ebufn_1
XFILLER_23_34 VGND VPWR sky130_fd_sc_hd__fill_2
XANTENNA_mem_top_track_0.sc_dff_compact_1_.sky130_fd_sc_hd__dfrbp_1_D _140_/A VGND
+ VPWR sky130_fd_sc_hd__diode_2
XFILLER_2_135 VGND VPWR sky130_fd_sc_hd__decap_12
XANTENNA_mux_top_track_14.mux_l1_in_0_.TGATE_0_.sky130_fd_sc_hd__ebufn_1_A mux_top_track_14.INVTX1_0_.sky130_fd_sc_hd__inv_1/Y
+ VGND VPWR sky130_fd_sc_hd__diode_2
XFILLER_0_49 VGND VPWR sky130_fd_sc_hd__decap_12
X_188_ _188_/A chanx_right_out[2] VGND VPWR sky130_fd_sc_hd__buf_2
XFILLER_29_3 VGND VPWR sky130_fd_sc_hd__fill_2
XANTENNA_mux_right_track_2.INVTX1_1_.sky130_fd_sc_hd__inv_1_A right_bottom_grid_pin_1_
+ VGND VPWR sky130_fd_sc_hd__diode_2
Xmux_top_track_16.INVTX1_0_.sky130_fd_sc_hd__inv_1 top_right_grid_pin_11_ mux_top_track_16.INVTX1_0_.sky130_fd_sc_hd__inv_1/Y
+ VGND VPWR sky130_fd_sc_hd__inv_1
XFILLER_7_227 VGND VPWR sky130_fd_sc_hd__fill_1
X_111_ _111_/A _111_/Y VGND VPWR sky130_fd_sc_hd__inv_8
XANTENNA__162__A _162_/A VGND VPWR sky130_fd_sc_hd__diode_2
XFILLER_1_81 VGND VPWR sky130_fd_sc_hd__decap_4
XFILLER_1_92 VGND VPWR sky130_fd_sc_hd__decap_4
XFILLER_20_68 VGND VPWR sky130_fd_sc_hd__decap_6
XFILLER_6_26 VGND VPWR sky130_fd_sc_hd__decap_4
XFILLER_13_6 VGND VPWR sky130_fd_sc_hd__fill_2
XFILLER_20_7 VGND VPWR sky130_fd_sc_hd__decap_12
XANTENNA__157__A _157_/A VGND VPWR sky130_fd_sc_hd__diode_2
XFILLER_19_153 VGND VPWR sky130_fd_sc_hd__fill_2
XANTENNA_mem_right_track_0.sc_dff_compact_0_.sky130_fd_sc_hd__dfrbp_1_D _098_/A VGND
+ VPWR sky130_fd_sc_hd__diode_2
Xmux_top_track_6.mux_l1_in_0_.TGATE_1_.sky130_fd_sc_hd__ebufn_1 mux_top_track_6.INVTX1_1_.sky130_fd_sc_hd__inv_1/Y
+ _151_/Y mux_top_track_6.mux_l1_in_0_.TGATE_0_.sky130_fd_sc_hd__ebufn_1/Z VGND VPWR
+ sky130_fd_sc_hd__ebufn_1
XFILLER_15_24 VGND VPWR sky130_fd_sc_hd__fill_2
XFILLER_15_57 VGND VPWR sky130_fd_sc_hd__fill_2
XFILLER_15_79 VGND VPWR sky130_fd_sc_hd__decap_12
XFILLER_25_156 VGND VPWR sky130_fd_sc_hd__fill_2
XPHY_195 VGND VPWR sky130_fd_sc_hd__tapvpwrvgnd_1
XFILLER_31_148 VGND VPWR sky130_fd_sc_hd__fill_2
XPHY_140 VGND VPWR sky130_fd_sc_hd__tapvpwrvgnd_1
XPHY_151 VGND VPWR sky130_fd_sc_hd__tapvpwrvgnd_1
XPHY_162 VGND VPWR sky130_fd_sc_hd__tapvpwrvgnd_1
XPHY_173 VGND VPWR sky130_fd_sc_hd__tapvpwrvgnd_1
XPHY_184 VGND VPWR sky130_fd_sc_hd__tapvpwrvgnd_1
XFILLER_11_3 VGND VPWR sky130_fd_sc_hd__fill_2
XANTENNA_mux_top_track_8.mux_l2_in_0_.TGATE_1_.sky130_fd_sc_hd__ebufn_1_TE_B _156_/Y
+ VGND VPWR sky130_fd_sc_hd__diode_2
XFILLER_13_104 VGND VPWR sky130_fd_sc_hd__decap_6
XFILLER_26_23 VGND VPWR sky130_fd_sc_hd__decap_8
XFILLER_26_56 VGND VPWR sky130_fd_sc_hd__decap_6
XFILLER_21_170 VGND VPWR sky130_fd_sc_hd__decap_8
XFILLER_36_218 VGND VPWR sky130_fd_sc_hd__decap_8
XANTENNA_mem_top_track_4.sc_dff_compact_0_.sky130_fd_sc_hd__dfrbp_1_CLK clkbuf_2_1_0_prog_clk/X
+ VGND VPWR sky130_fd_sc_hd__diode_2
XANTENNA_mux_top_track_2.mux_l2_in_0_.TGATE_0_.sky130_fd_sc_hd__ebufn_1_TE_B _146_/Y
+ VGND VPWR sky130_fd_sc_hd__diode_2
XANTENNA_mux_right_track_6.mux_l2_in_0_.TGATE_1_.sky130_fd_sc_hd__ebufn_1_A _171_/HI
+ VGND VPWR sky130_fd_sc_hd__diode_2
XANTENNA_mux_top_track_10.mux_l2_in_0_.TGATE_1_.sky130_fd_sc_hd__ebufn_1_TE_B _160_/Y
+ VGND VPWR sky130_fd_sc_hd__diode_2
XANTENNA_mux_right_track_6.mux_l2_in_0_.TGATE_0_.sky130_fd_sc_hd__ebufn_1_TE_B _114_/Y
+ VGND VPWR sky130_fd_sc_hd__diode_2
XFILLER_27_218 VGND VPWR sky130_fd_sc_hd__decap_8
XFILLER_10_129 VGND VPWR sky130_fd_sc_hd__fill_1
XFILLER_12_69 VGND VPWR sky130_fd_sc_hd__decap_3
Xmux_top_track_0.INVTX1_0_.sky130_fd_sc_hd__inv_1 top_left_grid_pin_1_ mux_top_track_0.INVTX1_0_.sky130_fd_sc_hd__inv_1/Y
+ VGND VPWR sky130_fd_sc_hd__inv_1
Xmux_right_track_12.tap_buf4_0_.sky130_fd_sc_hd__inv_1 mux_right_track_12.tap_buf4_0_.sky130_fd_sc_hd__inv_1/A
+ _184_/A VGND VPWR sky130_fd_sc_hd__inv_1
XFILLER_5_111 VGND VPWR sky130_fd_sc_hd__decap_8
XANTENNA_mux_top_track_4.mux_l1_in_0_.TGATE_1_.sky130_fd_sc_hd__ebufn_1_TE_B _149_/Y
+ VGND VPWR sky130_fd_sc_hd__diode_2
XFILLER_5_166 VGND VPWR sky130_fd_sc_hd__decap_4
XANTENNA_mux_right_track_16.mux_l2_in_0_.TGATE_0_.sky130_fd_sc_hd__ebufn_1_A mux_right_track_16.mux_l2_in_0_.TGATE_0_.sky130_fd_sc_hd__ebufn_1/A
+ VGND VPWR sky130_fd_sc_hd__diode_2
XFILLER_32_210 VGND VPWR sky130_fd_sc_hd__decap_4
XANTENNA_mux_right_track_8.mux_l1_in_0_.TGATE_1_.sky130_fd_sc_hd__ebufn_1_TE_B _121_/Y
+ VGND VPWR sky130_fd_sc_hd__diode_2
XFILLER_23_57 VGND VPWR sky130_fd_sc_hd__fill_2
XFILLER_2_147 VGND VPWR sky130_fd_sc_hd__decap_6
XFILLER_2_125 VGND VPWR sky130_fd_sc_hd__fill_1
XANTENNA_mux_right_track_2.mux_l1_in_0_.TGATE_0_.sky130_fd_sc_hd__ebufn_1_TE_B _108_/Y
+ VGND VPWR sky130_fd_sc_hd__diode_2
Xmem_top_track_8.sc_dff_compact_1_.sky130_fd_sc_hd__dfrbp_1 _157_/A _155_/A _156_/A
+ _138_/Y clkbuf_2_3_0_prog_clk/X VGND VPWR sky130_fd_sc_hd__dfrbp_1
XANTENNA_mux_top_track_4.tap_buf4_0_.sky130_fd_sc_hd__inv_1_A mux_top_track_4.tap_buf4_0_.sky130_fd_sc_hd__inv_1/A
+ VGND VPWR sky130_fd_sc_hd__diode_2
X_187_ _187_/A chanx_right_out[3] VGND VPWR sky130_fd_sc_hd__buf_2
XFILLER_1_191 VGND VPWR sky130_fd_sc_hd__fill_2
XFILLER_1_180 VGND VPWR sky130_fd_sc_hd__decap_3
XANTENNA_mem_right_track_14.sc_dff_compact_1_.sky130_fd_sc_hd__dfrbp_1_CLK clkbuf_2_2_0_prog_clk/X
+ VGND VPWR sky130_fd_sc_hd__diode_2
XFILLER_18_68 VGND VPWR sky130_fd_sc_hd__decap_4
X_110_ _110_/A _110_/Y VGND VPWR sky130_fd_sc_hd__inv_8
XFILLER_7_206 VGND VPWR sky130_fd_sc_hd__fill_2
XFILLER_7_217 VGND VPWR sky130_fd_sc_hd__fill_2
Xmux_right_track_4.mux_l1_in_0_.TGATE_0_.sky130_fd_sc_hd__ebufn_1 mux_right_track_4.INVTX1_0_.sky130_fd_sc_hd__inv_1/Y
+ _112_/Y mux_right_track_4.mux_l1_in_0_.TGATE_0_.sky130_fd_sc_hd__ebufn_1/Z VGND
+ VPWR sky130_fd_sc_hd__ebufn_1
XANTENNA_mux_right_track_10.mux_l2_in_0_.TGATE_1_.sky130_fd_sc_hd__ebufn_1_A _165_/HI
+ VGND VPWR sky130_fd_sc_hd__diode_2
Xmem_right_track_4.sc_dff_compact_1_.sky130_fd_sc_hd__dfrbp_1 _112_/A _110_/A _111_/A
+ _138_/Y clkbuf_2_0_0_prog_clk/X VGND VPWR sky130_fd_sc_hd__dfrbp_1
XFILLER_37_110 VGND VPWR sky130_fd_sc_hd__decap_12
XANTENNA_mux_top_track_14.INVTX1_0_.sky130_fd_sc_hd__inv_1_A top_left_grid_pin_15_
+ VGND VPWR sky130_fd_sc_hd__diode_2
XFILLER_10_91 VGND VPWR sky130_fd_sc_hd__fill_1
XFILLER_19_143 VGND VPWR sky130_fd_sc_hd__decap_8
XFILLER_34_179 VGND VPWR sky130_fd_sc_hd__decap_12
XFILLER_34_157 VGND VPWR sky130_fd_sc_hd__decap_12
XFILLER_25_146 VGND VPWR sky130_fd_sc_hd__decap_4
XFILLER_31_24 VGND VPWR sky130_fd_sc_hd__fill_2
XFILLER_25_179 VGND VPWR sky130_fd_sc_hd__fill_2
XFILLER_0_201 VGND VPWR sky130_fd_sc_hd__decap_4
XFILLER_31_127 VGND VPWR sky130_fd_sc_hd__fill_2
XPHY_130 VGND VPWR sky130_fd_sc_hd__tapvpwrvgnd_1
XPHY_141 VGND VPWR sky130_fd_sc_hd__tapvpwrvgnd_1
XPHY_152 VGND VPWR sky130_fd_sc_hd__tapvpwrvgnd_1
XPHY_196 VGND VPWR sky130_fd_sc_hd__tapvpwrvgnd_1
XPHY_185 VGND VPWR sky130_fd_sc_hd__tapvpwrvgnd_1
XPHY_163 VGND VPWR sky130_fd_sc_hd__tapvpwrvgnd_1
XPHY_174 VGND VPWR sky130_fd_sc_hd__tapvpwrvgnd_1
XFILLER_22_149 VGND VPWR sky130_fd_sc_hd__fill_2
XFILLER_7_70 VGND VPWR sky130_fd_sc_hd__decap_8
XFILLER_13_127 VGND VPWR sky130_fd_sc_hd__fill_2
XFILLER_9_109 VGND VPWR sky130_fd_sc_hd__fill_2
XFILLER_21_193 VGND VPWR sky130_fd_sc_hd__fill_2
Xmux_top_track_4.mux_l1_in_0_.TGATE_0_.sky130_fd_sc_hd__ebufn_1 mux_top_track_4.INVTX1_0_.sky130_fd_sc_hd__inv_1/Y
+ _150_/Y mux_top_track_4.mux_l1_in_0_.TGATE_0_.sky130_fd_sc_hd__ebufn_1/Z VGND VPWR
+ sky130_fd_sc_hd__ebufn_1
XANTENNA_mem_top_track_2.sc_dff_compact_0_.sky130_fd_sc_hd__dfrbp_1_D _142_/A VGND
+ VPWR sky130_fd_sc_hd__diode_2
XFILLER_8_186 VGND VPWR sky130_fd_sc_hd__decap_12
XANTENNA_mux_top_track_6.mux_l1_in_0_.TGATE_1_.sky130_fd_sc_hd__ebufn_1_A mux_top_track_6.INVTX1_1_.sky130_fd_sc_hd__inv_1/Y
+ VGND VPWR sky130_fd_sc_hd__diode_2
XFILLER_27_208 VGND VPWR sky130_fd_sc_hd__fill_2
XFILLER_5_178 VGND VPWR sky130_fd_sc_hd__decap_4
XFILLER_5_123 VGND VPWR sky130_fd_sc_hd__fill_2
XANTENNA_mem_top_track_14.sc_dff_compact_0_.sky130_fd_sc_hd__dfrbp_1_CLK clkbuf_2_0_0_prog_clk/X
+ VGND VPWR sky130_fd_sc_hd__diode_2
XANTENNA_mem_top_track_0.sc_dff_compact_0_.sky130_fd_sc_hd__dfrbp_1_RESET_B _138_/Y
+ VGND VPWR sky130_fd_sc_hd__diode_2
XFILLER_4_93 VGND VPWR sky130_fd_sc_hd__fill_2
XANTENNA__091__A _091_/A VGND VPWR sky130_fd_sc_hd__diode_2
XFILLER_23_47 VGND VPWR sky130_fd_sc_hd__decap_4
XANTENNA_mux_right_track_4.tap_buf4_0_.sky130_fd_sc_hd__inv_1_A mux_right_track_4.tap_buf4_0_.sky130_fd_sc_hd__inv_1/A
+ VGND VPWR sky130_fd_sc_hd__diode_2
XFILLER_9_49 VGND VPWR sky130_fd_sc_hd__fill_2
XANTENNA_mem_top_track_2.sc_dff_compact_1_.sky130_fd_sc_hd__dfrbp_1_RESET_B _138_/Y
+ VGND VPWR sky130_fd_sc_hd__diode_2
X_186_ _186_/A chanx_right_out[4] VGND VPWR sky130_fd_sc_hd__buf_2
XFILLER_13_91 VGND VPWR sky130_fd_sc_hd__fill_2
XFILLER_20_203 VGND VPWR sky130_fd_sc_hd__decap_8
XANTENNA_mux_top_track_12.mux_l2_in_0_.TGATE_0_.sky130_fd_sc_hd__ebufn_1_A mux_top_track_12.mux_l2_in_0_.TGATE_0_.sky130_fd_sc_hd__ebufn_1/A
+ VGND VPWR sky130_fd_sc_hd__diode_2
XFILLER_1_3 VGND VPWR sky130_fd_sc_hd__fill_2
X_169_ _169_/HI _169_/LO VGND VPWR sky130_fd_sc_hd__conb_1
XFILLER_24_90 VGND VPWR sky130_fd_sc_hd__fill_2
XFILLER_34_3 VGND VPWR sky130_fd_sc_hd__decap_3
XFILLER_37_144 VGND VPWR sky130_fd_sc_hd__decap_12
Xmux_right_track_6.tap_buf4_0_.sky130_fd_sc_hd__inv_1 mux_right_track_6.tap_buf4_0_.sky130_fd_sc_hd__inv_1/A
+ _187_/A VGND VPWR sky130_fd_sc_hd__inv_1
XFILLER_19_166 VGND VPWR sky130_fd_sc_hd__decap_6
XFILLER_34_169 VGND VPWR sky130_fd_sc_hd__decap_6
XFILLER_34_125 VGND VPWR sky130_fd_sc_hd__decap_12
XANTENNA_mux_top_track_2.mux_l2_in_0_.TGATE_1_.sky130_fd_sc_hd__ebufn_1_TE_B _145_/Y
+ VGND VPWR sky130_fd_sc_hd__diode_2
XFILLER_0_213 VGND VPWR sky130_fd_sc_hd__decap_4
XANTENNA_mux_right_track_6.mux_l2_in_0_.TGATE_1_.sky130_fd_sc_hd__ebufn_1_TE_B _115_/Y
+ VGND VPWR sky130_fd_sc_hd__diode_2
XFILLER_16_103 VGND VPWR sky130_fd_sc_hd__decap_6
XPHY_120 VGND VPWR sky130_fd_sc_hd__tapvpwrvgnd_1
XPHY_131 VGND VPWR sky130_fd_sc_hd__tapvpwrvgnd_1
XANTENNA_mem_right_track_14.sc_dff_compact_0_.sky130_fd_sc_hd__dfrbp_1_RESET_B _138_/Y
+ VGND VPWR sky130_fd_sc_hd__diode_2
XPHY_142 VGND VPWR sky130_fd_sc_hd__tapvpwrvgnd_1
XPHY_153 VGND VPWR sky130_fd_sc_hd__tapvpwrvgnd_1
XPHY_164 VGND VPWR sky130_fd_sc_hd__tapvpwrvgnd_1
XPHY_175 VGND VPWR sky130_fd_sc_hd__tapvpwrvgnd_1
XPHY_197 VGND VPWR sky130_fd_sc_hd__tapvpwrvgnd_1
XPHY_186 VGND VPWR sky130_fd_sc_hd__tapvpwrvgnd_1
XANTENNA_mux_right_track_16.mux_l2_in_0_.TGATE_0_.sky130_fd_sc_hd__ebufn_1_TE_B _134_/Y
+ VGND VPWR sky130_fd_sc_hd__diode_2
XPHY_0 VGND VPWR sky130_fd_sc_hd__decap_3
XANTENNA_mux_right_track_0.mux_l2_in_0_.TGATE_0_.sky130_fd_sc_hd__ebufn_1_TE_B _102_/Y
+ VGND VPWR sky130_fd_sc_hd__diode_2
XFILLER_30_183 VGND VPWR sky130_fd_sc_hd__fill_1
XANTENNA__184__A _184_/A VGND VPWR sky130_fd_sc_hd__diode_2
XFILLER_22_128 VGND VPWR sky130_fd_sc_hd__fill_2
XANTENNA_mux_right_track_6.mux_l1_in_0_.TGATE_1_.sky130_fd_sc_hd__ebufn_1_A mux_right_track_6.INVTX1_1_.sky130_fd_sc_hd__inv_1/Y
+ VGND VPWR sky130_fd_sc_hd__diode_2
XANTENNA__094__A _094_/A VGND VPWR sky130_fd_sc_hd__diode_2
XFILLER_13_117 VGND VPWR sky130_fd_sc_hd__decap_3
XANTENNA_mem_right_track_16.sc_dff_compact_1_.sky130_fd_sc_hd__dfrbp_1_RESET_B _138_/Y
+ VGND VPWR sky130_fd_sc_hd__diode_2
XFILLER_8_154 VGND VPWR sky130_fd_sc_hd__fill_2
XFILLER_12_183 VGND VPWR sky130_fd_sc_hd__fill_1
XFILLER_16_91 VGND VPWR sky130_fd_sc_hd__fill_1
Xmux_right_track_16.mux_l2_in_0_.TGATE_1_.sky130_fd_sc_hd__ebufn_1 _168_/HI _135_/Y
+ mux_right_track_16.tap_buf4_0_.sky130_fd_sc_hd__inv_1/A VGND VPWR sky130_fd_sc_hd__ebufn_1
XANTENNA_mux_right_track_2.mux_l1_in_0_.TGATE_1_.sky130_fd_sc_hd__ebufn_1_TE_B _109_/Y
+ VGND VPWR sky130_fd_sc_hd__diode_2
XANTENNA_mem_right_track_0.sc_dff_compact_1_.sky130_fd_sc_hd__dfrbp_1_CLK clkbuf_2_3_0_prog_clk/X
+ VGND VPWR sky130_fd_sc_hd__diode_2
XANTENNA_mux_right_track_12.mux_l1_in_0_.TGATE_0_.sky130_fd_sc_hd__ebufn_1_TE_B _128_/Y
+ VGND VPWR sky130_fd_sc_hd__diode_2
XFILLER_12_49 VGND VPWR sky130_fd_sc_hd__decap_3
XANTENNA_mux_right_track_16.mux_l1_in_0_.TGATE_0_.sky130_fd_sc_hd__ebufn_1_A mux_right_track_16.INVTX1_0_.sky130_fd_sc_hd__inv_1/Y
+ VGND VPWR sky130_fd_sc_hd__diode_2
Xclkbuf_2_0_0_prog_clk clkbuf_2_1_0_prog_clk/A clkbuf_2_0_0_prog_clk/X VGND VPWR sky130_fd_sc_hd__clkbuf_1
XFILLER_23_201 VGND VPWR sky130_fd_sc_hd__fill_2
XFILLER_23_212 VGND VPWR sky130_fd_sc_hd__decap_3
XFILLER_2_105 VGND VPWR sky130_fd_sc_hd__decap_12
XANTENNA_mem_top_track_16.sc_dff_compact_1_.sky130_fd_sc_hd__dfrbp_1_D _100_/A VGND
+ VPWR sky130_fd_sc_hd__diode_2
XFILLER_0_19 VGND VPWR sky130_fd_sc_hd__fill_2
XFILLER_9_17 VGND VPWR sky130_fd_sc_hd__decap_3
X_185_ _185_/A chanx_right_out[5] VGND VPWR sky130_fd_sc_hd__buf_2
Xmux_right_track_12.INVTX1_0_.sky130_fd_sc_hd__inv_1 chany_top_in[5] mux_right_track_12.INVTX1_0_.sky130_fd_sc_hd__inv_1/Y
+ VGND VPWR sky130_fd_sc_hd__inv_1
XANTENNA__192__A _192_/A VGND VPWR sky130_fd_sc_hd__diode_2