* NGSPICE file created from cby_0__1_.ext - technology: sky130A

* Black-box entry subcircuit for sky130_fd_sc_hd__decap_12 abstract view
.subckt sky130_fd_sc_hd__decap_12 VGND VPWR
.ends

* Black-box entry subcircuit for sky130_fd_sc_hd__decap_8 abstract view
.subckt sky130_fd_sc_hd__decap_8 VGND VPWR
.ends

* Black-box entry subcircuit for sky130_fd_sc_hd__fill_2 abstract view
.subckt sky130_fd_sc_hd__fill_2 VGND VPWR
.ends

* Black-box entry subcircuit for sky130_fd_sc_hd__dfrbp_1 abstract view
.subckt sky130_fd_sc_hd__dfrbp_1 D Q Q_N RESET_B CLK VGND VPWR
.ends

* Black-box entry subcircuit for sky130_fd_sc_hd__fill_1 abstract view
.subckt sky130_fd_sc_hd__fill_1 VGND VPWR
.ends

* Black-box entry subcircuit for sky130_fd_sc_hd__diode_2 abstract view
.subckt sky130_fd_sc_hd__diode_2 DIODE VGND VPWR
.ends

* Black-box entry subcircuit for sky130_fd_sc_hd__decap_6 abstract view
.subckt sky130_fd_sc_hd__decap_6 VGND VPWR
.ends

* Black-box entry subcircuit for sky130_fd_sc_hd__decap_3 abstract view
.subckt sky130_fd_sc_hd__decap_3 VGND VPWR
.ends

* Black-box entry subcircuit for sky130_fd_sc_hd__decap_4 abstract view
.subckt sky130_fd_sc_hd__decap_4 VGND VPWR
.ends

* Black-box entry subcircuit for sky130_fd_sc_hd__tapvpwrvgnd_1 abstract view
.subckt sky130_fd_sc_hd__tapvpwrvgnd_1 VGND VPWR
.ends

* Black-box entry subcircuit for sky130_fd_sc_hd__clkbuf_1 abstract view
.subckt sky130_fd_sc_hd__clkbuf_1 A X VGND VPWR
.ends

* Black-box entry subcircuit for sky130_fd_sc_hd__buf_2 abstract view
.subckt sky130_fd_sc_hd__buf_2 A X VGND VPWR
.ends

* Black-box entry subcircuit for sky130_fd_sc_hd__conb_1 abstract view
.subckt sky130_fd_sc_hd__conb_1 HI LO VGND VPWR
.ends

* Black-box entry subcircuit for sky130_fd_sc_hd__clkbuf_16 abstract view
.subckt sky130_fd_sc_hd__clkbuf_16 A X VGND VPWR
.ends

.subckt cby_0__1_ ccff_head ccff_tail chany_in_0_ chany_in_10_ chany_in_11_ chany_in_12_
+ chany_in_13_ chany_in_14_ chany_in_15_ chany_in_16_ chany_in_17_ chany_in_1_ chany_in_2_
+ chany_in_3_ chany_in_4_ chany_in_5_ chany_in_6_ chany_in_7_ chany_in_8_ chany_in_9_
+ chany_out_0_ chany_out_10_ chany_out_11_ chany_out_12_ chany_out_13_ chany_out_14_
+ chany_out_15_ chany_out_16_ chany_out_17_ chany_out_1_ chany_out_2_ chany_out_3_
+ chany_out_4_ chany_out_5_ chany_out_6_ chany_out_7_ chany_out_8_ chany_out_9_ left_grid_pin_0_
+ left_grid_pin_10_ left_grid_pin_12_ left_grid_pin_14_ left_grid_pin_2_ left_grid_pin_4_
+ left_grid_pin_6_ left_grid_pin_8_ pReset prog_clk right_grid_pin_3_ right_grid_pin_7_
+ VPWR VGND
XFILLER_22_177 VGND VPWR sky130_fd_sc_hd__decap_12
XFILLER_22_166 VGND VPWR sky130_fd_sc_hd__decap_8
XFILLER_22_122 VGND VPWR sky130_fd_sc_hd__fill_2
Xmem_right_ipin_7.sc_dff_compact_2_.sky130_fd_sc_hd__dfrbp_1 mem_right_ipin_7.sc_dff_compact_2_.sky130_fd_sc_hd__dfrbp_1/D
+ mem_right_ipin_7.sc_dff_compact_3_.sky130_fd_sc_hd__dfrbp_1/D mem_right_ipin_7.sc_dff_compact_2_.sky130_fd_sc_hd__dfrbp_1/Q_N
+ pReset clkbuf_2_1_0_prog_clk/X VGND VPWR sky130_fd_sc_hd__dfrbp_1
XFILLER_3_56 VGND VPWR sky130_fd_sc_hd__fill_1
XFILLER_3_89 VGND VPWR sky130_fd_sc_hd__fill_2
XANTENNA_mem_right_ipin_7.sc_dff_compact_3_.sky130_fd_sc_hd__dfrbp_1_D mem_right_ipin_7.sc_dff_compact_3_.sky130_fd_sc_hd__dfrbp_1/D
+ VGND VPWR sky130_fd_sc_hd__diode_2
Xmem_right_ipin_4.sc_dff_compact_3_.sky130_fd_sc_hd__dfrbp_1 mem_right_ipin_4.sc_dff_compact_3_.sky130_fd_sc_hd__dfrbp_1/D
+ mem_right_ipin_4.sc_dff_compact_3_.sky130_fd_sc_hd__dfrbp_1/Q mem_right_ipin_4.sc_dff_compact_3_.sky130_fd_sc_hd__dfrbp_1/Q_N
+ pReset clkbuf_2_3_0_prog_clk/X VGND VPWR sky130_fd_sc_hd__dfrbp_1
XFILLER_12_76 VGND VPWR sky130_fd_sc_hd__decap_6
XFILLER_12_32 VGND VPWR sky130_fd_sc_hd__fill_2
XFILLER_10_158 VGND VPWR sky130_fd_sc_hd__fill_2
XFILLER_5_184 VGND VPWR sky130_fd_sc_hd__fill_2
XFILLER_23_261 VGND VPWR sky130_fd_sc_hd__decap_12
XFILLER_23_75 VGND VPWR sky130_fd_sc_hd__decap_12
Xmem_right_ipin_1.sc_dff_compact_4_.sky130_fd_sc_hd__dfrbp_1 mem_right_ipin_1.sc_dff_compact_3_.sky130_fd_sc_hd__dfrbp_1/Q
+ mem_right_ipin_1.sc_dff_compact_4_.sky130_fd_sc_hd__dfrbp_1/Q mem_right_ipin_1.sc_dff_compact_4_.sky130_fd_sc_hd__dfrbp_1/Q_N
+ pReset clkbuf_2_0_0_prog_clk/X VGND VPWR sky130_fd_sc_hd__dfrbp_1
XFILLER_9_77 VGND VPWR sky130_fd_sc_hd__fill_2
XFILLER_2_154 VGND VPWR sky130_fd_sc_hd__fill_2
XANTENNA_clkbuf_2_1_0_prog_clk_A clkbuf_2_1_0_prog_clk/A VGND VPWR sky130_fd_sc_hd__diode_2
XFILLER_18_64 VGND VPWR sky130_fd_sc_hd__decap_12
XFILLER_11_220 VGND VPWR sky130_fd_sc_hd__decap_12
XFILLER_7_257 VGND VPWR sky130_fd_sc_hd__decap_12
XFILLER_7_224 VGND VPWR sky130_fd_sc_hd__decap_12
XFILLER_20_32 VGND VPWR sky130_fd_sc_hd__decap_3
XFILLER_4_227 VGND VPWR sky130_fd_sc_hd__decap_12
XFILLER_19_161 VGND VPWR sky130_fd_sc_hd__fill_2
XFILLER_13_3 VGND VPWR sky130_fd_sc_hd__decap_6
XFILLER_6_23 VGND VPWR sky130_fd_sc_hd__fill_1
XFILLER_16_186 VGND VPWR sky130_fd_sc_hd__fill_2
XFILLER_16_142 VGND VPWR sky130_fd_sc_hd__decap_6
XFILLER_0_230 VGND VPWR sky130_fd_sc_hd__decap_12
XFILLER_22_189 VGND VPWR sky130_fd_sc_hd__decap_12
XFILLER_13_123 VGND VPWR sky130_fd_sc_hd__decap_12
XFILLER_9_138 VGND VPWR sky130_fd_sc_hd__fill_2
XFILLER_8_160 VGND VPWR sky130_fd_sc_hd__fill_2
XFILLER_18_215 VGND VPWR sky130_fd_sc_hd__decap_12
XFILLER_12_11 VGND VPWR sky130_fd_sc_hd__decap_3
XFILLER_17_281 VGND VPWR sky130_fd_sc_hd__fill_1
XFILLER_23_273 VGND VPWR sky130_fd_sc_hd__decap_6
XFILLER_23_32 VGND VPWR sky130_fd_sc_hd__decap_12
XFILLER_23_87 VGND VPWR sky130_fd_sc_hd__decap_6
XFILLER_14_251 VGND VPWR sky130_fd_sc_hd__decap_12
XANTENNA_mem_right_ipin_0.sc_dff_compact_4_.sky130_fd_sc_hd__dfrbp_1_RESET_B pReset
+ VGND VPWR sky130_fd_sc_hd__diode_2
XFILLER_9_89 VGND VPWR sky130_fd_sc_hd__fill_2
XFILLER_9_67 VGND VPWR sky130_fd_sc_hd__fill_2
XFILLER_2_133 VGND VPWR sky130_fd_sc_hd__fill_1
XFILLER_2_199 VGND VPWR sky130_fd_sc_hd__decap_3
XFILLER_20_276 VGND VPWR sky130_fd_sc_hd__decap_6
XFILLER_20_210 VGND VPWR sky130_fd_sc_hd__decap_4
XFILLER_18_76 VGND VPWR sky130_fd_sc_hd__decap_12
XFILLER_18_32 VGND VPWR sky130_fd_sc_hd__fill_2
XFILLER_11_232 VGND VPWR sky130_fd_sc_hd__decap_12
XFILLER_7_269 VGND VPWR sky130_fd_sc_hd__decap_12
XANTENNA_mem_right_ipin_2.sc_dff_compact_5_.sky130_fd_sc_hd__dfrbp_1_RESET_B pReset
+ VGND VPWR sky130_fd_sc_hd__diode_2
XFILLER_7_236 VGND VPWR sky130_fd_sc_hd__decap_8
XFILLER_4_239 VGND VPWR sky130_fd_sc_hd__decap_12
XFILLER_19_184 VGND VPWR sky130_fd_sc_hd__fill_2
XFILLER_3_261 VGND VPWR sky130_fd_sc_hd__decap_12
XFILLER_6_57 VGND VPWR sky130_fd_sc_hd__decap_12
XPHY_160 VGND VPWR sky130_fd_sc_hd__tapvpwrvgnd_1
XFILLER_16_154 VGND VPWR sky130_fd_sc_hd__decap_4
XFILLER_0_242 VGND VPWR sky130_fd_sc_hd__decap_6
XFILLER_21_190 VGND VPWR sky130_fd_sc_hd__fill_2
XFILLER_13_135 VGND VPWR sky130_fd_sc_hd__decap_12
XANTENNA_mem_right_ipin_0.sc_dff_compact_4_.sky130_fd_sc_hd__dfrbp_1_CLK clkbuf_2_1_0_prog_clk/X
+ VGND VPWR sky130_fd_sc_hd__diode_2
XFILLER_8_150 VGND VPWR sky130_fd_sc_hd__decap_3
XANTENNA_mem_right_ipin_1.sc_dff_compact_5_.sky130_fd_sc_hd__dfrbp_1_CLK clkbuf_2_0_0_prog_clk/X
+ VGND VPWR sky130_fd_sc_hd__diode_2
Xmem_right_ipin_6.sc_dff_compact_1_.sky130_fd_sc_hd__dfrbp_1 mem_right_ipin_6.sc_dff_compact_0_.sky130_fd_sc_hd__dfrbp_1/Q
+ mem_right_ipin_6.sc_dff_compact_1_.sky130_fd_sc_hd__dfrbp_1/Q mem_right_ipin_6.sc_dff_compact_1_.sky130_fd_sc_hd__dfrbp_1/Q_N
+ pReset clkbuf_2_1_0_prog_clk/X VGND VPWR sky130_fd_sc_hd__dfrbp_1
XFILLER_18_227 VGND VPWR sky130_fd_sc_hd__decap_12
XFILLER_5_175 VGND VPWR sky130_fd_sc_hd__fill_2
XFILLER_15_208 VGND VPWR sky130_fd_sc_hd__decap_12
XFILLER_23_230 VGND VPWR sky130_fd_sc_hd__decap_12
XFILLER_23_44 VGND VPWR sky130_fd_sc_hd__decap_12
XFILLER_14_263 VGND VPWR sky130_fd_sc_hd__decap_12
XFILLER_3_3 VGND VPWR sky130_fd_sc_hd__decap_8
Xmem_left_ipin_0.sc_dff_compact_2_.sky130_fd_sc_hd__dfrbp_1 mem_left_ipin_0.sc_dff_compact_2_.sky130_fd_sc_hd__dfrbp_1/D
+ mem_left_ipin_0.sc_dff_compact_2_.sky130_fd_sc_hd__dfrbp_1/Q mem_left_ipin_0.sc_dff_compact_2_.sky130_fd_sc_hd__dfrbp_1/Q_N
+ pReset clkbuf_2_0_0_prog_clk/X VGND VPWR sky130_fd_sc_hd__dfrbp_1
Xmem_right_ipin_3.sc_dff_compact_2_.sky130_fd_sc_hd__dfrbp_1 mem_right_ipin_3.sc_dff_compact_2_.sky130_fd_sc_hd__dfrbp_1/D
+ mem_right_ipin_3.sc_dff_compact_2_.sky130_fd_sc_hd__dfrbp_1/Q mem_right_ipin_3.sc_dff_compact_2_.sky130_fd_sc_hd__dfrbp_1/Q_N
+ pReset clkbuf_2_2_0_prog_clk/X VGND VPWR sky130_fd_sc_hd__dfrbp_1
Xmem_right_ipin_0.sc_dff_compact_3_.sky130_fd_sc_hd__dfrbp_1 mem_right_ipin_0.sc_dff_compact_2_.sky130_fd_sc_hd__dfrbp_1/Q
+ mem_right_ipin_0.sc_dff_compact_4_.sky130_fd_sc_hd__dfrbp_1/D mem_right_ipin_0.sc_dff_compact_3_.sky130_fd_sc_hd__dfrbp_1/Q_N
+ pReset clkbuf_2_1_0_prog_clk/X VGND VPWR sky130_fd_sc_hd__dfrbp_1
XFILLER_20_23 VGND VPWR sky130_fd_sc_hd__decap_4
XANTENNA_clkbuf_1_0_0_prog_clk_A clkbuf_0_prog_clk/X VGND VPWR sky130_fd_sc_hd__diode_2
XFILLER_3_273 VGND VPWR sky130_fd_sc_hd__decap_8
XFILLER_6_69 VGND VPWR sky130_fd_sc_hd__decap_12
XFILLER_19_152 VGND VPWR sky130_fd_sc_hd__decap_3
XFILLER_15_67 VGND VPWR sky130_fd_sc_hd__fill_2
XPHY_161 VGND VPWR sky130_fd_sc_hd__tapvpwrvgnd_1
XPHY_150 VGND VPWR sky130_fd_sc_hd__tapvpwrvgnd_1
Xclkbuf_2_1_0_prog_clk clkbuf_2_1_0_prog_clk/A clkbuf_2_1_0_prog_clk/X VGND VPWR sky130_fd_sc_hd__clkbuf_1
XFILLER_13_169 VGND VPWR sky130_fd_sc_hd__decap_12
XFILLER_13_158 VGND VPWR sky130_fd_sc_hd__fill_1
XFILLER_13_147 VGND VPWR sky130_fd_sc_hd__decap_4
XFILLER_3_15 VGND VPWR sky130_fd_sc_hd__fill_2
XFILLER_3_59 VGND VPWR sky130_fd_sc_hd__fill_2
XFILLER_12_57 VGND VPWR sky130_fd_sc_hd__decap_12
XFILLER_18_239 VGND VPWR sky130_fd_sc_hd__decap_12
XFILLER_5_143 VGND VPWR sky130_fd_sc_hd__fill_1
XANTENNA_mem_right_ipin_1.sc_dff_compact_5_.sky130_fd_sc_hd__dfrbp_1_RESET_B pReset
+ VGND VPWR sky130_fd_sc_hd__diode_2
XFILLER_23_242 VGND VPWR sky130_fd_sc_hd__decap_6
XFILLER_23_56 VGND VPWR sky130_fd_sc_hd__decap_6
XANTENNA__12__A chany_in_11_ VGND VPWR sky130_fd_sc_hd__diode_2
XFILLER_2_179 VGND VPWR sky130_fd_sc_hd__decap_12
XFILLER_9_47 VGND VPWR sky130_fd_sc_hd__decap_12
XFILLER_11_245 VGND VPWR sky130_fd_sc_hd__decap_12
XANTENNA_mem_right_ipin_4.sc_dff_compact_0_.sky130_fd_sc_hd__dfrbp_1_CLK clkbuf_2_2_0_prog_clk/X
+ VGND VPWR sky130_fd_sc_hd__diode_2
XANTENNA_mem_right_ipin_5.sc_dff_compact_1_.sky130_fd_sc_hd__dfrbp_1_CLK clkbuf_2_3_0_prog_clk/X
+ VGND VPWR sky130_fd_sc_hd__diode_2
XANTENNA_mem_right_ipin_6.sc_dff_compact_2_.sky130_fd_sc_hd__dfrbp_1_CLK clkbuf_2_1_0_prog_clk/X
+ VGND VPWR sky130_fd_sc_hd__diode_2
XANTENNA_mem_right_ipin_7.sc_dff_compact_3_.sky130_fd_sc_hd__dfrbp_1_CLK clkbuf_2_1_0_prog_clk/X
+ VGND VPWR sky130_fd_sc_hd__diode_2
XFILLER_6_15 VGND VPWR sky130_fd_sc_hd__decap_8
XFILLER_6_26 VGND VPWR sky130_fd_sc_hd__decap_4
XFILLER_10_90 VGND VPWR sky130_fd_sc_hd__fill_2
XFILLER_15_46 VGND VPWR sky130_fd_sc_hd__decap_12
XFILLER_15_13 VGND VPWR sky130_fd_sc_hd__fill_2
XFILLER_0_211 VGND VPWR sky130_fd_sc_hd__decap_6
XANTENNA__20__A chany_in_2_ VGND VPWR sky130_fd_sc_hd__diode_2
XPHY_162 VGND VPWR sky130_fd_sc_hd__tapvpwrvgnd_1
XPHY_151 VGND VPWR sky130_fd_sc_hd__tapvpwrvgnd_1
XPHY_140 VGND VPWR sky130_fd_sc_hd__tapvpwrvgnd_1
XFILLER_11_3 VGND VPWR sky130_fd_sc_hd__decap_8
XFILLER_22_126 VGND VPWR sky130_fd_sc_hd__decap_12
XANTENNA_mem_left_ipin_0.sc_dff_compact_3_.sky130_fd_sc_hd__dfrbp_1_CLK clkbuf_2_0_0_prog_clk/X
+ VGND VPWR sky130_fd_sc_hd__diode_2
XANTENNA__15__A chany_in_14_ VGND VPWR sky130_fd_sc_hd__diode_2
Xmem_right_ipin_7.sc_dff_compact_5_.sky130_fd_sc_hd__dfrbp_1 mem_right_ipin_7.sc_dff_compact_4_.sky130_fd_sc_hd__dfrbp_1/Q
+ ccff_tail mem_right_ipin_7.sc_dff_compact_5_.sky130_fd_sc_hd__dfrbp_1/Q_N pReset
+ clkbuf_2_1_0_prog_clk/X VGND VPWR sky130_fd_sc_hd__dfrbp_1
XFILLER_10_118 VGND VPWR sky130_fd_sc_hd__decap_12
XFILLER_8_185 VGND VPWR sky130_fd_sc_hd__decap_12
XFILLER_8_130 VGND VPWR sky130_fd_sc_hd__decap_12
XFILLER_5_188 VGND VPWR sky130_fd_sc_hd__decap_12
XFILLER_2_136 VGND VPWR sky130_fd_sc_hd__fill_2
XFILLER_14_276 VGND VPWR sky130_fd_sc_hd__decap_6
XFILLER_9_59 VGND VPWR sky130_fd_sc_hd__fill_2
XFILLER_9_15 VGND VPWR sky130_fd_sc_hd__fill_1
XFILLER_20_257 VGND VPWR sky130_fd_sc_hd__fill_2
XFILLER_18_57 VGND VPWR sky130_fd_sc_hd__decap_4
Xmem_right_ipin_5.sc_dff_compact_0_.sky130_fd_sc_hd__dfrbp_1 mem_right_ipin_5.sc_dff_compact_0_.sky130_fd_sc_hd__dfrbp_1/D
+ mem_right_ipin_5.sc_dff_compact_1_.sky130_fd_sc_hd__dfrbp_1/D mem_right_ipin_5.sc_dff_compact_0_.sky130_fd_sc_hd__dfrbp_1/Q_N
+ pReset clkbuf_2_3_0_prog_clk/X VGND VPWR sky130_fd_sc_hd__dfrbp_1
XANTENNA__23__A chany_in_5_ VGND VPWR sky130_fd_sc_hd__diode_2
XFILLER_11_257 VGND VPWR sky130_fd_sc_hd__decap_12
XFILLER_1_60 VGND VPWR sky130_fd_sc_hd__fill_1
Xmem_right_ipin_2.sc_dff_compact_1_.sky130_fd_sc_hd__dfrbp_1 mem_right_ipin_2.sc_dff_compact_0_.sky130_fd_sc_hd__dfrbp_1/Q
+ mem_right_ipin_2.sc_dff_compact_1_.sky130_fd_sc_hd__dfrbp_1/Q mem_right_ipin_2.sc_dff_compact_1_.sky130_fd_sc_hd__dfrbp_1/Q_N
+ pReset clkbuf_2_0_0_prog_clk/X VGND VPWR sky130_fd_sc_hd__dfrbp_1
XANTENNA__18__A chany_in_17_ VGND VPWR sky130_fd_sc_hd__diode_2
XFILLER_20_58 VGND VPWR sky130_fd_sc_hd__decap_12
XFILLER_4_209 VGND VPWR sky130_fd_sc_hd__decap_4
XFILLER_19_165 VGND VPWR sky130_fd_sc_hd__fill_2
XFILLER_3_220 VGND VPWR sky130_fd_sc_hd__decap_12
XFILLER_15_58 VGND VPWR sky130_fd_sc_hd__decap_3
XANTENNA_mem_right_ipin_0.sc_dff_compact_1_.sky130_fd_sc_hd__dfrbp_1_D mem_right_ipin_0.sc_dff_compact_0_.sky130_fd_sc_hd__dfrbp_1/Q
+ VGND VPWR sky130_fd_sc_hd__diode_2
XANTENNA_mem_left_ipin_0.sc_dff_compact_1_.sky130_fd_sc_hd__dfrbp_1_D mem_left_ipin_0.sc_dff_compact_1_.sky130_fd_sc_hd__dfrbp_1/D
+ VGND VPWR sky130_fd_sc_hd__diode_2
XPHY_163 VGND VPWR sky130_fd_sc_hd__tapvpwrvgnd_1
XPHY_152 VGND VPWR sky130_fd_sc_hd__tapvpwrvgnd_1
XFILLER_21_90 VGND VPWR sky130_fd_sc_hd__fill_2
XPHY_141 VGND VPWR sky130_fd_sc_hd__tapvpwrvgnd_1
XPHY_130 VGND VPWR sky130_fd_sc_hd__tapvpwrvgnd_1
XFILLER_22_138 VGND VPWR sky130_fd_sc_hd__decap_12
XFILLER_7_70 VGND VPWR sky130_fd_sc_hd__fill_2
XFILLER_21_182 VGND VPWR sky130_fd_sc_hd__fill_1
XANTENNA_mem_right_ipin_0.sc_dff_compact_5_.sky130_fd_sc_hd__dfrbp_1_RESET_B pReset
+ VGND VPWR sky130_fd_sc_hd__diode_2
XFILLER_12_182 VGND VPWR sky130_fd_sc_hd__decap_12
XFILLER_8_197 VGND VPWR sky130_fd_sc_hd__decap_12
XFILLER_8_142 VGND VPWR sky130_fd_sc_hd__decap_8
XANTENNA__26__A chany_in_8_ VGND VPWR sky130_fd_sc_hd__diode_2
XFILLER_17_241 VGND VPWR sky130_fd_sc_hd__decap_3
XFILLER_5_123 VGND VPWR sky130_fd_sc_hd__decap_12
XFILLER_23_211 VGND VPWR sky130_fd_sc_hd__decap_6
XFILLER_4_60 VGND VPWR sky130_fd_sc_hd__fill_1
XFILLER_4_93 VGND VPWR sky130_fd_sc_hd__fill_2
XFILLER_9_281 VGND VPWR sky130_fd_sc_hd__fill_1
XFILLER_1_170 VGND VPWR sky130_fd_sc_hd__decap_12
XANTENNA_mem_left_ipin_0.sc_dff_compact_4_.sky130_fd_sc_hd__dfrbp_1_D mem_left_ipin_0.sc_dff_compact_4_.sky130_fd_sc_hd__dfrbp_1/D
+ VGND VPWR sky130_fd_sc_hd__diode_2
XFILLER_11_269 VGND VPWR sky130_fd_sc_hd__decap_12
XANTENNA_mem_right_ipin_0.sc_dff_compact_4_.sky130_fd_sc_hd__dfrbp_1_D mem_right_ipin_0.sc_dff_compact_4_.sky130_fd_sc_hd__dfrbp_1/D
+ VGND VPWR sky130_fd_sc_hd__diode_2
XFILLER_1_3 VGND VPWR sky130_fd_sc_hd__fill_2
X_27_ chany_in_9_ chany_out_9_ VGND VPWR sky130_fd_sc_hd__buf_2
XFILLER_6_251 VGND VPWR sky130_fd_sc_hd__decap_12
XFILLER_20_15 VGND VPWR sky130_fd_sc_hd__decap_4
XFILLER_19_177 VGND VPWR sky130_fd_sc_hd__fill_2
XFILLER_10_81 VGND VPWR sky130_fd_sc_hd__decap_3
XFILLER_3_232 VGND VPWR sky130_fd_sc_hd__decap_12
XPHY_164 VGND VPWR sky130_fd_sc_hd__tapvpwrvgnd_1
XPHY_153 VGND VPWR sky130_fd_sc_hd__tapvpwrvgnd_1
XPHY_142 VGND VPWR sky130_fd_sc_hd__tapvpwrvgnd_1
XPHY_131 VGND VPWR sky130_fd_sc_hd__tapvpwrvgnd_1
XFILLER_16_158 VGND VPWR sky130_fd_sc_hd__fill_1
XPHY_120 VGND VPWR sky130_fd_sc_hd__tapvpwrvgnd_1
XPHY_0 VGND VPWR sky130_fd_sc_hd__decap_3
XFILLER_21_194 VGND VPWR sky130_fd_sc_hd__fill_2
XFILLER_13_106 VGND VPWR sky130_fd_sc_hd__decap_12
XFILLER_16_91 VGND VPWR sky130_fd_sc_hd__fill_1
XFILLER_12_194 VGND VPWR sky130_fd_sc_hd__decap_12
XANTENNA_mem_right_ipin_1.sc_dff_compact_2_.sky130_fd_sc_hd__dfrbp_1_D mem_right_ipin_1.sc_dff_compact_1_.sky130_fd_sc_hd__dfrbp_1/Q
+ VGND VPWR sky130_fd_sc_hd__diode_2
XFILLER_8_154 VGND VPWR sky130_fd_sc_hd__decap_4
XFILLER_12_16 VGND VPWR sky130_fd_sc_hd__fill_2
Xclkbuf_2_0_0_prog_clk clkbuf_2_1_0_prog_clk/A clkbuf_2_0_0_prog_clk/X VGND VPWR sky130_fd_sc_hd__clkbuf_1
XFILLER_5_135 VGND VPWR sky130_fd_sc_hd__decap_8
XFILLER_5_146 VGND VPWR sky130_fd_sc_hd__fill_2
XFILLER_5_179 VGND VPWR sky130_fd_sc_hd__decap_4
XFILLER_23_15 VGND VPWR sky130_fd_sc_hd__decap_12
Xmem_right_ipin_6.sc_dff_compact_4_.sky130_fd_sc_hd__dfrbp_1 mem_right_ipin_6.sc_dff_compact_3_.sky130_fd_sc_hd__dfrbp_1/Q
+ mem_right_ipin_6.sc_dff_compact_4_.sky130_fd_sc_hd__dfrbp_1/Q mem_right_ipin_6.sc_dff_compact_4_.sky130_fd_sc_hd__dfrbp_1/Q_N
+ pReset clkbuf_2_1_0_prog_clk/X VGND VPWR sky130_fd_sc_hd__dfrbp_1
XFILLER_13_81 VGND VPWR sky130_fd_sc_hd__fill_2
XFILLER_2_127 VGND VPWR sky130_fd_sc_hd__decap_6
XFILLER_20_215 VGND VPWR sky130_fd_sc_hd__decap_12
Xmem_left_ipin_0.sc_dff_compact_5_.sky130_fd_sc_hd__dfrbp_1 mem_left_ipin_0.sc_dff_compact_4_.sky130_fd_sc_hd__dfrbp_1/Q
+ mem_left_ipin_0.sc_dff_compact_5_.sky130_fd_sc_hd__dfrbp_1/Q mem_left_ipin_0.sc_dff_compact_5_.sky130_fd_sc_hd__dfrbp_1/Q_N
+ pReset clkbuf_2_0_0_prog_clk/X VGND VPWR sky130_fd_sc_hd__dfrbp_1
XFILLER_1_182 VGND VPWR sky130_fd_sc_hd__fill_1
XFILLER_1_160 VGND VPWR sky130_fd_sc_hd__fill_2
XFILLER_18_15 VGND VPWR sky130_fd_sc_hd__decap_12
Xmem_right_ipin_3.sc_dff_compact_5_.sky130_fd_sc_hd__dfrbp_1 mem_right_ipin_3.sc_dff_compact_4_.sky130_fd_sc_hd__dfrbp_1/Q
+ mem_right_ipin_4.sc_dff_compact_0_.sky130_fd_sc_hd__dfrbp_1/D mem_right_ipin_3.sc_dff_compact_5_.sky130_fd_sc_hd__dfrbp_1/Q_N
+ pReset clkbuf_2_2_0_prog_clk/X VGND VPWR sky130_fd_sc_hd__dfrbp_1
XFILLER_6_263 VGND VPWR sky130_fd_sc_hd__decap_12
XANTENNA_mem_right_ipin_2.sc_dff_compact_0_.sky130_fd_sc_hd__dfrbp_1_D mem_right_ipin_1.sc_dff_compact_5_.sky130_fd_sc_hd__dfrbp_1/Q
+ VGND VPWR sky130_fd_sc_hd__diode_2
X_26_ chany_in_8_ chany_out_8_ VGND VPWR sky130_fd_sc_hd__buf_2
XFILLER_1_62 VGND VPWR sky130_fd_sc_hd__decap_12
XFILLER_19_123 VGND VPWR sky130_fd_sc_hd__fill_2
XFILLER_13_9 VGND VPWR sky130_fd_sc_hd__fill_1
XFILLER_10_93 VGND VPWR sky130_fd_sc_hd__fill_2
X_09_ _09_/HI right_grid_pin_3_ VGND VPWR sky130_fd_sc_hd__conb_1
XANTENNA_mem_right_ipin_0.sc_dff_compact_3_.sky130_fd_sc_hd__dfrbp_1_CLK clkbuf_2_1_0_prog_clk/X
+ VGND VPWR sky130_fd_sc_hd__diode_2
XANTENNA_mem_right_ipin_1.sc_dff_compact_5_.sky130_fd_sc_hd__dfrbp_1_D mem_right_ipin_1.sc_dff_compact_4_.sky130_fd_sc_hd__dfrbp_1/Q
+ VGND VPWR sky130_fd_sc_hd__diode_2
XANTENNA_mem_right_ipin_1.sc_dff_compact_4_.sky130_fd_sc_hd__dfrbp_1_CLK clkbuf_2_0_0_prog_clk/X
+ VGND VPWR sky130_fd_sc_hd__diode_2
XPHY_154 VGND VPWR sky130_fd_sc_hd__tapvpwrvgnd_1
XPHY_143 VGND VPWR sky130_fd_sc_hd__tapvpwrvgnd_1
XPHY_132 VGND VPWR sky130_fd_sc_hd__tapvpwrvgnd_1
XFILLER_16_148 VGND VPWR sky130_fd_sc_hd__fill_1
XPHY_121 VGND VPWR sky130_fd_sc_hd__tapvpwrvgnd_1
XPHY_110 VGND VPWR sky130_fd_sc_hd__tapvpwrvgnd_1
Xmem_right_ipin_1.sc_dff_compact_0_.sky130_fd_sc_hd__dfrbp_1 mem_right_ipin_0.sc_dff_compact_5_.sky130_fd_sc_hd__dfrbp_1/Q
+ mem_right_ipin_1.sc_dff_compact_0_.sky130_fd_sc_hd__dfrbp_1/Q mem_right_ipin_1.sc_dff_compact_0_.sky130_fd_sc_hd__dfrbp_1/Q_N
+ pReset clkbuf_2_0_0_prog_clk/X VGND VPWR sky130_fd_sc_hd__dfrbp_1
XANTENNA_mem_right_ipin_2.sc_dff_compact_5_.sky130_fd_sc_hd__dfrbp_1_CLK clkbuf_2_2_0_prog_clk/X
+ VGND VPWR sky130_fd_sc_hd__diode_2
XPHY_1 VGND VPWR sky130_fd_sc_hd__decap_3
XFILLER_21_184 VGND VPWR sky130_fd_sc_hd__fill_2
XFILLER_21_162 VGND VPWR sky130_fd_sc_hd__decap_12
XFILLER_13_118 VGND VPWR sky130_fd_sc_hd__decap_4
XFILLER_12_151 VGND VPWR sky130_fd_sc_hd__fill_2
XFILLER_3_19 VGND VPWR sky130_fd_sc_hd__fill_2
XFILLER_12_28 VGND VPWR sky130_fd_sc_hd__decap_3
XFILLER_17_221 VGND VPWR sky130_fd_sc_hd__decap_12
XANTENNA_mem_right_ipin_2.sc_dff_compact_3_.sky130_fd_sc_hd__dfrbp_1_D mem_right_ipin_2.sc_dff_compact_3_.sky130_fd_sc_hd__dfrbp_1/D
+ VGND VPWR sky130_fd_sc_hd__diode_2
XFILLER_4_40 VGND VPWR sky130_fd_sc_hd__decap_12
XFILLER_4_84 VGND VPWR sky130_fd_sc_hd__decap_8
XFILLER_23_27 VGND VPWR sky130_fd_sc_hd__decap_4
XFILLER_9_18 VGND VPWR sky130_fd_sc_hd__fill_2
XFILLER_20_227 VGND VPWR sky130_fd_sc_hd__decap_12
XFILLER_1_74 VGND VPWR sky130_fd_sc_hd__decap_12
X_25_ chany_in_7_ chany_out_7_ VGND VPWR sky130_fd_sc_hd__buf_2
XFILLER_3_245 VGND VPWR sky130_fd_sc_hd__decap_8
XFILLER_19_157 VGND VPWR sky130_fd_sc_hd__fill_2
XANTENNA_clkbuf_2_2_0_prog_clk_A clkbuf_2_3_0_prog_clk/A VGND VPWR sky130_fd_sc_hd__diode_2
XANTENNA_mem_right_ipin_3.sc_dff_compact_1_.sky130_fd_sc_hd__dfrbp_1_D mem_right_ipin_3.sc_dff_compact_0_.sky130_fd_sc_hd__dfrbp_1/Q
+ VGND VPWR sky130_fd_sc_hd__diode_2
X_08_ _08_/HI left_grid_pin_0_ VGND VPWR sky130_fd_sc_hd__conb_1
XFILLER_18_190 VGND VPWR sky130_fd_sc_hd__decap_12
XFILLER_15_17 VGND VPWR sky130_fd_sc_hd__fill_2
XPHY_100 VGND VPWR sky130_fd_sc_hd__tapvpwrvgnd_1
XPHY_155 VGND VPWR sky130_fd_sc_hd__tapvpwrvgnd_1
XPHY_144 VGND VPWR sky130_fd_sc_hd__tapvpwrvgnd_1
XPHY_133 VGND VPWR sky130_fd_sc_hd__tapvpwrvgnd_1
XPHY_122 VGND VPWR sky130_fd_sc_hd__tapvpwrvgnd_1
XPHY_111 VGND VPWR sky130_fd_sc_hd__tapvpwrvgnd_1
XPHY_2 VGND VPWR sky130_fd_sc_hd__decap_3
XFILLER_21_174 VGND VPWR sky130_fd_sc_hd__decap_8
XFILLER_7_62 VGND VPWR sky130_fd_sc_hd__decap_8
XFILLER_16_93 VGND VPWR sky130_fd_sc_hd__fill_2
XANTENNA_mem_right_ipin_5.sc_dff_compact_0_.sky130_fd_sc_hd__dfrbp_1_CLK clkbuf_2_3_0_prog_clk/X
+ VGND VPWR sky130_fd_sc_hd__diode_2
XFILLER_17_233 VGND VPWR sky130_fd_sc_hd__decap_8
XFILLER_4_52 VGND VPWR sky130_fd_sc_hd__decap_8
XANTENNA_mem_right_ipin_6.sc_dff_compact_1_.sky130_fd_sc_hd__dfrbp_1_CLK clkbuf_2_1_0_prog_clk/X
+ VGND VPWR sky130_fd_sc_hd__diode_2
XANTENNA_mem_right_ipin_7.sc_dff_compact_2_.sky130_fd_sc_hd__dfrbp_1_CLK clkbuf_2_1_0_prog_clk/X
+ VGND VPWR sky130_fd_sc_hd__diode_2
XFILLER_13_50 VGND VPWR sky130_fd_sc_hd__fill_2
XFILLER_1_184 VGND VPWR sky130_fd_sc_hd__decap_12
XFILLER_1_140 VGND VPWR sky130_fd_sc_hd__decap_8
XFILLER_20_239 VGND VPWR sky130_fd_sc_hd__decap_12
XANTENNA_mem_right_ipin_3.sc_dff_compact_4_.sky130_fd_sc_hd__dfrbp_1_D mem_right_ipin_3.sc_dff_compact_3_.sky130_fd_sc_hd__dfrbp_1/Q
+ VGND VPWR sky130_fd_sc_hd__diode_2
Xmem_right_ipin_5.sc_dff_compact_3_.sky130_fd_sc_hd__dfrbp_1 mem_right_ipin_5.sc_dff_compact_3_.sky130_fd_sc_hd__dfrbp_1/D
+ mem_right_ipin_5.sc_dff_compact_3_.sky130_fd_sc_hd__dfrbp_1/Q mem_right_ipin_5.sc_dff_compact_3_.sky130_fd_sc_hd__dfrbp_1/Q_N
+ pReset clkbuf_2_3_0_prog_clk/X VGND VPWR sky130_fd_sc_hd__dfrbp_1
XFILLER_20_29 VGND VPWR sky130_fd_sc_hd__fill_2
XFILLER_6_276 VGND VPWR sky130_fd_sc_hd__decap_6
XFILLER_1_86 VGND VPWR sky130_fd_sc_hd__decap_12
X_24_ chany_in_6_ chany_out_6_ VGND VPWR sky130_fd_sc_hd__buf_2
XANTENNA_mem_left_ipin_0.sc_dff_compact_2_.sky130_fd_sc_hd__dfrbp_1_CLK clkbuf_2_0_0_prog_clk/X
+ VGND VPWR sky130_fd_sc_hd__diode_2
XFILLER_3_257 VGND VPWR sky130_fd_sc_hd__fill_2
XFILLER_19_169 VGND VPWR sky130_fd_sc_hd__decap_6
XFILLER_19_114 VGND VPWR sky130_fd_sc_hd__decap_8
XFILLER_19_82 VGND VPWR sky130_fd_sc_hd__fill_1
Xmem_right_ipin_2.sc_dff_compact_4_.sky130_fd_sc_hd__dfrbp_1 mem_right_ipin_2.sc_dff_compact_3_.sky130_fd_sc_hd__dfrbp_1/Q
+ mem_right_ipin_2.sc_dff_compact_4_.sky130_fd_sc_hd__dfrbp_1/Q mem_right_ipin_2.sc_dff_compact_4_.sky130_fd_sc_hd__dfrbp_1/Q_N
+ pReset clkbuf_2_2_0_prog_clk/X VGND VPWR sky130_fd_sc_hd__dfrbp_1
XFILLER_0_249 VGND VPWR sky130_fd_sc_hd__decap_12
X_07_ _07_/HI left_grid_pin_10_ VGND VPWR sky130_fd_sc_hd__conb_1
XPHY_156 VGND VPWR sky130_fd_sc_hd__tapvpwrvgnd_1
XFILLER_21_94 VGND VPWR sky130_fd_sc_hd__fill_2
XPHY_145 VGND VPWR sky130_fd_sc_hd__tapvpwrvgnd_1
XPHY_134 VGND VPWR sky130_fd_sc_hd__tapvpwrvgnd_1
XPHY_123 VGND VPWR sky130_fd_sc_hd__tapvpwrvgnd_1
XPHY_112 VGND VPWR sky130_fd_sc_hd__tapvpwrvgnd_1
XPHY_101 VGND VPWR sky130_fd_sc_hd__tapvpwrvgnd_1
XFILLER_15_150 VGND VPWR sky130_fd_sc_hd__fill_2
XPHY_3 VGND VPWR sky130_fd_sc_hd__decap_3
XFILLER_7_74 VGND VPWR sky130_fd_sc_hd__fill_2
XFILLER_21_120 VGND VPWR sky130_fd_sc_hd__fill_2
XANTENNA_mem_right_ipin_4.sc_dff_compact_2_.sky130_fd_sc_hd__dfrbp_1_D mem_right_ipin_4.sc_dff_compact_1_.sky130_fd_sc_hd__dfrbp_1/Q
+ VGND VPWR sky130_fd_sc_hd__diode_2
XFILLER_12_131 VGND VPWR sky130_fd_sc_hd__decap_12
XFILLER_17_245 VGND VPWR sky130_fd_sc_hd__decap_12
XFILLER_4_97 VGND VPWR sky130_fd_sc_hd__decap_12
XFILLER_14_215 VGND VPWR sky130_fd_sc_hd__decap_12
XFILLER_13_62 VGND VPWR sky130_fd_sc_hd__decap_12
XFILLER_1_196 VGND VPWR sky130_fd_sc_hd__decap_6
XFILLER_1_152 VGND VPWR sky130_fd_sc_hd__fill_2
XFILLER_18_29 VGND VPWR sky130_fd_sc_hd__fill_2
XFILLER_13_281 VGND VPWR sky130_fd_sc_hd__fill_1
XANTENNA_mem_right_ipin_5.sc_dff_compact_0_.sky130_fd_sc_hd__dfrbp_1_D mem_right_ipin_5.sc_dff_compact_0_.sky130_fd_sc_hd__dfrbp_1/D
+ VGND VPWR sky130_fd_sc_hd__diode_2
XFILLER_1_7 VGND VPWR sky130_fd_sc_hd__fill_2
X_23_ chany_in_5_ chany_out_5_ VGND VPWR sky130_fd_sc_hd__buf_2
XFILLER_10_251 VGND VPWR sky130_fd_sc_hd__decap_3
XFILLER_1_98 VGND VPWR sky130_fd_sc_hd__decap_6
XFILLER_1_32 VGND VPWR sky130_fd_sc_hd__fill_2
XFILLER_6_211 VGND VPWR sky130_fd_sc_hd__decap_3
XANTENNA_mem_right_ipin_4.sc_dff_compact_5_.sky130_fd_sc_hd__dfrbp_1_D mem_right_ipin_4.sc_dff_compact_4_.sky130_fd_sc_hd__dfrbp_1/Q
+ VGND VPWR sky130_fd_sc_hd__diode_2
XFILLER_10_30 VGND VPWR sky130_fd_sc_hd__fill_1
X_06_ _06_/HI left_grid_pin_12_ VGND VPWR sky130_fd_sc_hd__conb_1
XPHY_157 VGND VPWR sky130_fd_sc_hd__tapvpwrvgnd_1
XFILLER_21_62 VGND VPWR sky130_fd_sc_hd__decap_12
XPHY_146 VGND VPWR sky130_fd_sc_hd__tapvpwrvgnd_1
XPHY_135 VGND VPWR sky130_fd_sc_hd__tapvpwrvgnd_1
XFILLER_16_118 VGND VPWR sky130_fd_sc_hd__decap_12
XPHY_124 VGND VPWR sky130_fd_sc_hd__tapvpwrvgnd_1
XPHY_113 VGND VPWR sky130_fd_sc_hd__tapvpwrvgnd_1
XPHY_102 VGND VPWR sky130_fd_sc_hd__tapvpwrvgnd_1
XFILLER_15_184 VGND VPWR sky130_fd_sc_hd__decap_12
XPHY_4 VGND VPWR sky130_fd_sc_hd__decap_3
XFILLER_21_110 VGND VPWR sky130_fd_sc_hd__decap_8
XANTENNA_clkbuf_1_1_0_prog_clk_A clkbuf_0_prog_clk/X VGND VPWR sky130_fd_sc_hd__diode_2
XFILLER_12_154 VGND VPWR sky130_fd_sc_hd__decap_4
XFILLER_12_143 VGND VPWR sky130_fd_sc_hd__decap_8
XANTENNA_mem_right_ipin_5.sc_dff_compact_3_.sky130_fd_sc_hd__dfrbp_1_D mem_right_ipin_5.sc_dff_compact_3_.sky130_fd_sc_hd__dfrbp_1/D
+ VGND VPWR sky130_fd_sc_hd__diode_2
XFILLER_17_257 VGND VPWR sky130_fd_sc_hd__decap_12
XFILLER_5_106 VGND VPWR sky130_fd_sc_hd__decap_12
XFILLER_23_249 VGND VPWR sky130_fd_sc_hd__decap_12
XFILLER_4_32 VGND VPWR sky130_fd_sc_hd__fill_2
XFILLER_4_150 VGND VPWR sky130_fd_sc_hd__decap_3
XFILLER_14_227 VGND VPWR sky130_fd_sc_hd__decap_12
XFILLER_13_74 VGND VPWR sky130_fd_sc_hd__decap_4
XANTENNA_mem_right_ipin_7.sc_dff_compact_0_.sky130_fd_sc_hd__dfrbp_1_RESET_B pReset
+ VGND VPWR sky130_fd_sc_hd__diode_2
XFILLER_9_220 VGND VPWR sky130_fd_sc_hd__decap_12
XFILLER_11_208 VGND VPWR sky130_fd_sc_hd__decap_12
X_22_ chany_in_4_ chany_out_4_ VGND VPWR sky130_fd_sc_hd__buf_2
Xmem_right_ipin_7.sc_dff_compact_1_.sky130_fd_sc_hd__dfrbp_1 mem_right_ipin_7.sc_dff_compact_0_.sky130_fd_sc_hd__dfrbp_1/Q
+ mem_right_ipin_7.sc_dff_compact_2_.sky130_fd_sc_hd__dfrbp_1/D mem_right_ipin_7.sc_dff_compact_1_.sky130_fd_sc_hd__dfrbp_1/Q_N
+ pReset clkbuf_2_1_0_prog_clk/X VGND VPWR sky130_fd_sc_hd__dfrbp_1
XFILLER_19_127 VGND VPWR sky130_fd_sc_hd__fill_2
XANTENNA_mem_right_ipin_6.sc_dff_compact_1_.sky130_fd_sc_hd__dfrbp_1_D mem_right_ipin_6.sc_dff_compact_0_.sky130_fd_sc_hd__dfrbp_1/Q
+ VGND VPWR sky130_fd_sc_hd__diode_2
XFILLER_19_62 VGND VPWR sky130_fd_sc_hd__decap_12
XFILLER_10_86 VGND VPWR sky130_fd_sc_hd__fill_2
XFILLER_10_20 VGND VPWR sky130_fd_sc_hd__fill_2
XFILLER_18_3 VGND VPWR sky130_fd_sc_hd__decap_12
Xmem_right_ipin_4.sc_dff_compact_2_.sky130_fd_sc_hd__dfrbp_1 mem_right_ipin_4.sc_dff_compact_1_.sky130_fd_sc_hd__dfrbp_1/Q
+ mem_right_ipin_4.sc_dff_compact_3_.sky130_fd_sc_hd__dfrbp_1/D mem_right_ipin_4.sc_dff_compact_2_.sky130_fd_sc_hd__dfrbp_1/Q_N
+ pReset clkbuf_2_3_0_prog_clk/X VGND VPWR sky130_fd_sc_hd__dfrbp_1
X_05_ _05_/HI left_grid_pin_14_ VGND VPWR sky130_fd_sc_hd__conb_1
XPHY_158 VGND VPWR sky130_fd_sc_hd__tapvpwrvgnd_1
XFILLER_21_74 VGND VPWR sky130_fd_sc_hd__decap_12
XPHY_147 VGND VPWR sky130_fd_sc_hd__tapvpwrvgnd_1
XFILLER_21_41 VGND VPWR sky130_fd_sc_hd__fill_2
XPHY_136 VGND VPWR sky130_fd_sc_hd__tapvpwrvgnd_1
XPHY_125 VGND VPWR sky130_fd_sc_hd__tapvpwrvgnd_1
XPHY_114 VGND VPWR sky130_fd_sc_hd__tapvpwrvgnd_1
XPHY_103 VGND VPWR sky130_fd_sc_hd__tapvpwrvgnd_1
XFILLER_0_218 VGND VPWR sky130_fd_sc_hd__decap_12
XFILLER_15_196 VGND VPWR sky130_fd_sc_hd__decap_12
XPHY_5 VGND VPWR sky130_fd_sc_hd__decap_3
Xmem_right_ipin_1.sc_dff_compact_3_.sky130_fd_sc_hd__dfrbp_1 mem_right_ipin_1.sc_dff_compact_2_.sky130_fd_sc_hd__dfrbp_1/Q
+ mem_right_ipin_1.sc_dff_compact_3_.sky130_fd_sc_hd__dfrbp_1/Q mem_right_ipin_1.sc_dff_compact_3_.sky130_fd_sc_hd__dfrbp_1/Q_N
+ pReset clkbuf_2_0_0_prog_clk/X VGND VPWR sky130_fd_sc_hd__dfrbp_1
XFILLER_17_269 VGND VPWR sky130_fd_sc_hd__decap_12
XFILLER_5_118 VGND VPWR sky130_fd_sc_hd__decap_4
XFILLER_22_261 VGND VPWR sky130_fd_sc_hd__decap_12
XFILLER_14_239 VGND VPWR sky130_fd_sc_hd__decap_12
XFILLER_14_206 VGND VPWR sky130_fd_sc_hd__decap_8
XANTENNA_mem_right_ipin_6.sc_dff_compact_4_.sky130_fd_sc_hd__dfrbp_1_D mem_right_ipin_6.sc_dff_compact_3_.sky130_fd_sc_hd__dfrbp_1/Q
+ VGND VPWR sky130_fd_sc_hd__diode_2
XANTENNA_mem_right_ipin_0.sc_dff_compact_2_.sky130_fd_sc_hd__dfrbp_1_CLK clkbuf_2_1_0_prog_clk/X
+ VGND VPWR sky130_fd_sc_hd__diode_2
XFILLER_9_232 VGND VPWR sky130_fd_sc_hd__decap_12
XFILLER_1_110 VGND VPWR sky130_fd_sc_hd__fill_2
XANTENNA_mem_right_ipin_1.sc_dff_compact_3_.sky130_fd_sc_hd__dfrbp_1_CLK clkbuf_2_0_0_prog_clk/X
+ VGND VPWR sky130_fd_sc_hd__diode_2
XANTENNA_mem_right_ipin_2.sc_dff_compact_4_.sky130_fd_sc_hd__dfrbp_1_CLK clkbuf_2_2_0_prog_clk/X
+ VGND VPWR sky130_fd_sc_hd__diode_2