* NGSPICE file created from cbx_1__0_.ext - technology: sky130A

* Black-box entry subcircuit for sky130_fd_sc_hd__decap_12 abstract view
.subckt sky130_fd_sc_hd__decap_12 VGND VPWR
.ends

* Black-box entry subcircuit for sky130_fd_sc_hd__fill_2 abstract view
.subckt sky130_fd_sc_hd__fill_2 VGND VPWR
.ends

* Black-box entry subcircuit for sky130_fd_sc_hd__dfrbp_1 abstract view
.subckt sky130_fd_sc_hd__dfrbp_1 D Q Q_N RESET_B CLK VGND VPWR
.ends

* Black-box entry subcircuit for sky130_fd_sc_hd__decap_8 abstract view
.subckt sky130_fd_sc_hd__decap_8 VGND VPWR
.ends

* Black-box entry subcircuit for sky130_fd_sc_hd__decap_4 abstract view
.subckt sky130_fd_sc_hd__decap_4 VGND VPWR
.ends

* Black-box entry subcircuit for sky130_fd_sc_hd__diode_2 abstract view
.subckt sky130_fd_sc_hd__diode_2 DIODE VGND VPWR
.ends

* Black-box entry subcircuit for sky130_fd_sc_hd__clkbuf_1 abstract view
.subckt sky130_fd_sc_hd__clkbuf_1 A X VGND VPWR
.ends

* Black-box entry subcircuit for sky130_fd_sc_hd__decap_3 abstract view
.subckt sky130_fd_sc_hd__decap_3 VGND VPWR
.ends

* Black-box entry subcircuit for sky130_fd_sc_hd__decap_6 abstract view
.subckt sky130_fd_sc_hd__decap_6 VGND VPWR
.ends

* Black-box entry subcircuit for sky130_fd_sc_hd__fill_1 abstract view
.subckt sky130_fd_sc_hd__fill_1 VGND VPWR
.ends

* Black-box entry subcircuit for sky130_fd_sc_hd__buf_2 abstract view
.subckt sky130_fd_sc_hd__buf_2 A X VGND VPWR
.ends

* Black-box entry subcircuit for sky130_fd_sc_hd__tapvpwrvgnd_1 abstract view
.subckt sky130_fd_sc_hd__tapvpwrvgnd_1 VGND VPWR
.ends

* Black-box entry subcircuit for sky130_fd_sc_hd__conb_1 abstract view
.subckt sky130_fd_sc_hd__conb_1 HI LO VGND VPWR
.ends

* Black-box entry subcircuit for sky130_fd_sc_hd__clkbuf_16 abstract view
.subckt sky130_fd_sc_hd__clkbuf_16 A X VGND VPWR
.ends

.subckt cbx_1__0_ bottom_grid_pin_0_ bottom_grid_pin_10_ bottom_grid_pin_12_ bottom_grid_pin_14_
+ bottom_grid_pin_2_ bottom_grid_pin_4_ bottom_grid_pin_6_ bottom_grid_pin_8_ ccff_head
+ ccff_tail chanx_in_0_ chanx_in_10_ chanx_in_11_ chanx_in_12_ chanx_in_13_ chanx_in_14_
+ chanx_in_15_ chanx_in_16_ chanx_in_17_ chanx_in_1_ chanx_in_2_ chanx_in_3_ chanx_in_4_
+ chanx_in_5_ chanx_in_6_ chanx_in_7_ chanx_in_8_ chanx_in_9_ chanx_out_0_ chanx_out_10_
+ chanx_out_11_ chanx_out_12_ chanx_out_13_ chanx_out_14_ chanx_out_15_ chanx_out_16_
+ chanx_out_17_ chanx_out_1_ chanx_out_2_ chanx_out_3_ chanx_out_4_ chanx_out_5_ chanx_out_6_
+ chanx_out_7_ chanx_out_8_ chanx_out_9_ pReset prog_clk top_grid_pin_14_ top_grid_pin_2_
+ top_grid_pin_6_
XFILLER_22_166 _20_/VGND _12_/VPWR sky130_fd_sc_hd__decap_12
XFILLER_13_166 PHY_27/VGND _00_/VPWR sky130_fd_sc_hd__decap_12
XFILLER_3_45 _04_/VGND _09_/VPWR sky130_fd_sc_hd__fill_2
Xmem_top_ipin_0.sc_dff_compact_4_.sky130_fd_sc_hd__dfrbp_1 mem_top_ipin_0.sc_dff_compact_4_.sky130_fd_sc_hd__dfrbp_1/D
+ mem_top_ipin_0.sc_dff_compact_5_.sky130_fd_sc_hd__dfrbp_1/D mem_top_ipin_0.sc_dff_compact_4_.sky130_fd_sc_hd__dfrbp_1/Q_N
+ pReset clkbuf_3_5_0_prog_clk/X _04_/VGND _09_/VPWR sky130_fd_sc_hd__dfrbp_1
Xmem_bottom_ipin_2.sc_dff_compact_5_.sky130_fd_sc_hd__dfrbp_1 mem_bottom_ipin_2.sc_dff_compact_4_.sky130_fd_sc_hd__dfrbp_1/Q
+ mem_top_ipin_0.sc_dff_compact_0_.sky130_fd_sc_hd__dfrbp_1/D mem_bottom_ipin_2.sc_dff_compact_5_.sky130_fd_sc_hd__dfrbp_1/Q_N
+ pReset clkbuf_3_4_0_prog_clk/X PHY_19/VGND PHY_17/VPWR sky130_fd_sc_hd__dfrbp_1
XFILLER_12_54 PHY_27/VGND PHY_25/VPWR sky130_fd_sc_hd__fill_2
XFILLER_12_32 PHY_27/VGND PHY_25/VPWR sky130_fd_sc_hd__decap_12
XFILLER_6_107 _17_/VGND _17_/VPWR sky130_fd_sc_hd__decap_8
Xmem_bottom_ipin_0.sc_dff_compact_0_.sky130_fd_sc_hd__dfrbp_1 ccff_head mem_bottom_ipin_0.sc_dff_compact_1_.sky130_fd_sc_hd__dfrbp_1/D
+ mem_bottom_ipin_0.sc_dff_compact_0_.sky130_fd_sc_hd__dfrbp_1/Q_N pReset clkbuf_3_0_0_prog_clk/X
+ PHY_8/VGND _17_/VPWR sky130_fd_sc_hd__dfrbp_1
XFILLER_2_154 _04_/VGND _24_/VPWR sky130_fd_sc_hd__decap_4
XFILLER_9_44 PHY_19/VGND PHY_21/VPWR sky130_fd_sc_hd__fill_2
XFILLER_9_66 PHY_19/VGND PHY_21/VPWR sky130_fd_sc_hd__decap_12
XANTENNA_clkbuf_2_1_0_prog_clk_A clkbuf_2_1_0_prog_clk/A PHY_39/VGND _06_/VPWR sky130_fd_sc_hd__diode_2
Xclkbuf_3_4_0_prog_clk clkbuf_2_2_0_prog_clk/X clkbuf_3_4_0_prog_clk/X PHY_19/VGND
+ PHY_17/VPWR sky130_fd_sc_hd__clkbuf_1
XFILLER_18_20 PHY_39/VGND _06_/VPWR sky130_fd_sc_hd__fill_2
XANTENNA_mem_top_ipin_0.sc_dff_compact_2_.sky130_fd_sc_hd__dfrbp_1_D mem_top_ipin_0.sc_dff_compact_1_.sky130_fd_sc_hd__dfrbp_1/Q
+ _04_/VGND _09_/VPWR sky130_fd_sc_hd__diode_2
XFILLER_29_106 _10_/VGND _10_/VPWR sky130_fd_sc_hd__decap_12
XFILLER_29_63 _10_/VGND _10_/VPWR sky130_fd_sc_hd__decap_12
XFILLER_28_150 _10_/VGND _11_/VPWR sky130_fd_sc_hd__decap_3
XFILLER_20_32 PHY_43/VGND PHY_38/VPWR sky130_fd_sc_hd__fill_2
XFILLER_19_172 PHY_39/VGND PHY_38/VPWR sky130_fd_sc_hd__decap_6
XFILLER_13_3 PHY_27/VGND _00_/VPWR sky130_fd_sc_hd__decap_3
XANTENNA_mem_top_ipin_0.sc_dff_compact_5_.sky130_fd_sc_hd__dfrbp_1_CLK clkbuf_3_5_0_prog_clk/X
+ PHY_8/VGND _17_/VPWR sky130_fd_sc_hd__diode_2
XFILLER_6_89 _17_/VGND _17_/VPWR sky130_fd_sc_hd__decap_3
XFILLER_25_175 _27_/VGND _16_/VPWR sky130_fd_sc_hd__decap_4
XFILLER_25_131 _27_/VGND _16_/VPWR sky130_fd_sc_hd__fill_1
XFILLER_25_120 _27_/VGND _16_/VPWR sky130_fd_sc_hd__fill_2
XFILLER_16_142 _06_/VGND PHY_33/VPWR sky130_fd_sc_hd__fill_1
XFILLER_22_178 _20_/VGND _12_/VPWR sky130_fd_sc_hd__fill_1
XFILLER_26_86 _16_/VGND _16_/VPWR sky130_fd_sc_hd__decap_6
XFILLER_13_178 PHY_27/VGND _00_/VPWR sky130_fd_sc_hd__fill_1
XFILLER_13_123 PHY_27/VGND _00_/VPWR sky130_fd_sc_hd__fill_2
XANTENNA_mem_top_ipin_1.sc_dff_compact_0_.sky130_fd_sc_hd__dfrbp_1_D mem_top_ipin_1.sc_dff_compact_0_.sky130_fd_sc_hd__dfrbp_1/D
+ _17_/VGND _17_/VPWR sky130_fd_sc_hd__diode_2
XFILLER_12_44 PHY_27/VGND PHY_25/VPWR sky130_fd_sc_hd__decap_4
XANTENNA_mem_top_ipin_0.sc_dff_compact_5_.sky130_fd_sc_hd__dfrbp_1_D mem_top_ipin_0.sc_dff_compact_5_.sky130_fd_sc_hd__dfrbp_1/D
+ PHY_8/VGND _09_/VPWR sky130_fd_sc_hd__diode_2
XFILLER_23_10 _20_/VGND _20_/VPWR sky130_fd_sc_hd__fill_2
XANTENNA_mem_bottom_ipin_1.sc_dff_compact_1_.sky130_fd_sc_hd__dfrbp_1_RESET_B pReset
+ _24_/VGND _24_/VPWR sky130_fd_sc_hd__diode_2
XFILLER_2_133 _04_/VGND _24_/VPWR sky130_fd_sc_hd__decap_8
XFILLER_9_78 PHY_19/VGND PHY_21/VPWR sky130_fd_sc_hd__fill_1
XFILLER_9_89 PHY_19/VGND PHY_21/VPWR sky130_fd_sc_hd__fill_2
XANTENNA_mem_bottom_ipin_1.sc_dff_compact_0_.sky130_fd_sc_hd__dfrbp_1_CLK clkbuf_3_1_0_prog_clk/X
+ _24_/VGND _24_/VPWR sky130_fd_sc_hd__diode_2
XFILLER_18_32 PHY_39/VGND _06_/VPWR sky130_fd_sc_hd__decap_8
XANTENNA_mem_bottom_ipin_2.sc_dff_compact_1_.sky130_fd_sc_hd__dfrbp_1_CLK clkbuf_3_4_0_prog_clk/X
+ _24_/VGND _24_/VPWR sky130_fd_sc_hd__diode_2
XFILLER_29_118 _10_/VGND _10_/VPWR sky130_fd_sc_hd__decap_6
XFILLER_29_75 _10_/VGND _10_/VPWR sky130_fd_sc_hd__decap_12
XFILLER_20_22 PHY_43/VGND PHY_38/VPWR sky130_fd_sc_hd__decap_8
XFILLER_6_13 _17_/VGND _17_/VPWR sky130_fd_sc_hd__decap_12
XFILLER_6_57 _17_/VGND _17_/VPWR sky130_fd_sc_hd__decap_4
XFILLER_15_44 _00_/VGND PHY_33/VPWR sky130_fd_sc_hd__decap_6
XFILLER_15_11 _00_/VGND PHY_33/VPWR sky130_fd_sc_hd__fill_2
XANTENNA_mem_top_ipin_1.sc_dff_compact_3_.sky130_fd_sc_hd__dfrbp_1_D mem_top_ipin_1.sc_dff_compact_2_.sky130_fd_sc_hd__dfrbp_1/Q
+ PHY_27/VGND _00_/VPWR sky130_fd_sc_hd__diode_2
XFILLER_16_154 _06_/VGND PHY_33/VPWR sky130_fd_sc_hd__decap_12
Xmem_top_ipin_5.sc_dff_compact_1_.sky130_fd_sc_hd__dfrbp_1 mem_top_ipin_5.sc_dff_compact_1_.sky130_fd_sc_hd__dfrbp_1/D
+ mem_top_ipin_5.sc_dff_compact_1_.sky130_fd_sc_hd__dfrbp_1/Q mem_top_ipin_5.sc_dff_compact_1_.sky130_fd_sc_hd__dfrbp_1/Q_N
+ pReset clkbuf_3_2_0_prog_clk/X _06_/VGND _06_/VPWR sky130_fd_sc_hd__dfrbp_1
XFILLER_26_32 _16_/VGND _16_/VPWR sky130_fd_sc_hd__fill_2
XFILLER_13_102 PHY_27/VGND _00_/VPWR sky130_fd_sc_hd__decap_12
XFILLER_7_9 _17_/VGND PHY_17/VPWR sky130_fd_sc_hd__fill_2
XFILLER_9_139 PHY_19/VGND PHY_21/VPWR sky130_fd_sc_hd__fill_2
Xmem_top_ipin_2.sc_dff_compact_2_.sky130_fd_sc_hd__dfrbp_1 mem_top_ipin_2.sc_dff_compact_1_.sky130_fd_sc_hd__dfrbp_1/Q
+ mem_top_ipin_2.sc_dff_compact_2_.sky130_fd_sc_hd__dfrbp_1/Q mem_top_ipin_2.sc_dff_compact_2_.sky130_fd_sc_hd__dfrbp_1/Q_N
+ pReset clkbuf_3_7_0_prog_clk/X PHY_39/VGND PHY_38/VPWR sky130_fd_sc_hd__dfrbp_1
XFILLER_12_12 PHY_27/VGND PHY_25/VPWR sky130_fd_sc_hd__decap_12
XFILLER_10_138 PHY_23/VGND PHY_21/VPWR sky130_fd_sc_hd__fill_2
XANTENNA_mem_top_ipin_3.sc_dff_compact_0_.sky130_fd_sc_hd__dfrbp_1_CLK clkbuf_3_3_0_prog_clk/X
+ PHY_43/VGND PHY_38/VPWR sky130_fd_sc_hd__diode_2
XANTENNA_mem_top_ipin_4.sc_dff_compact_1_.sky130_fd_sc_hd__dfrbp_1_CLK clkbuf_3_0_0_prog_clk/X
+ PHY_27/VGND PHY_25/VPWR sky130_fd_sc_hd__diode_2
XANTENNA_mem_top_ipin_5.sc_dff_compact_2_.sky130_fd_sc_hd__dfrbp_1_CLK clkbuf_3_3_0_prog_clk/X
+ PHY_39/VGND PHY_38/VPWR sky130_fd_sc_hd__diode_2
XANTENNA_mem_top_ipin_2.sc_dff_compact_1_.sky130_fd_sc_hd__dfrbp_1_D mem_top_ipin_2.sc_dff_compact_0_.sky130_fd_sc_hd__dfrbp_1/Q
+ _06_/VGND _06_/VPWR sky130_fd_sc_hd__diode_2
XANTENNA_mem_top_ipin_7.sc_dff_compact_4_.sky130_fd_sc_hd__dfrbp_1_CLK clkbuf_3_7_0_prog_clk/X
+ _27_/VGND _20_/VPWR sky130_fd_sc_hd__diode_2
XFILLER_23_66 _20_/VGND _20_/VPWR sky130_fd_sc_hd__fill_2
XFILLER_23_55 _20_/VGND _20_/VPWR sky130_fd_sc_hd__fill_2
XANTENNA_mem_top_ipin_6.sc_dff_compact_3_.sky130_fd_sc_hd__dfrbp_1_CLK clkbuf_3_3_0_prog_clk/X
+ PHY_43/VGND _12_/VPWR sky130_fd_sc_hd__diode_2
XFILLER_0_15 _24_/VGND PHY_0/VPWR sky130_fd_sc_hd__decap_12
XFILLER_2_145 _04_/VGND _24_/VPWR sky130_fd_sc_hd__fill_2
XFILLER_3_3 _04_/VGND _09_/VPWR sky130_fd_sc_hd__decap_4
XFILLER_22_9 _20_/VGND _12_/VPWR sky130_fd_sc_hd__fill_1
XANTENNA_clkbuf_1_0_0_prog_clk_A clkbuf_0_prog_clk/X _00_/VGND PHY_33/VPWR sky130_fd_sc_hd__diode_2
XFILLER_29_87 _10_/VGND _10_/VPWR sky130_fd_sc_hd__decap_6
XFILLER_29_32 _10_/VGND _10_/VPWR sky130_fd_sc_hd__decap_12
XFILLER_28_163 _10_/VGND _11_/VPWR sky130_fd_sc_hd__decap_12
XFILLER_28_141 _10_/VGND _11_/VPWR sky130_fd_sc_hd__decap_6
XANTENNA_mem_top_ipin_7.sc_dff_compact_0_.sky130_fd_sc_hd__dfrbp_1_RESET_B pReset
+ _20_/VGND _20_/VPWR sky130_fd_sc_hd__diode_2
XFILLER_6_25 _17_/VGND _17_/VPWR sky130_fd_sc_hd__decap_6
XFILLER_16_166 _06_/VGND PHY_33/VPWR sky130_fd_sc_hd__decap_12
XFILLER_16_122 _06_/VGND PHY_33/VPWR sky130_fd_sc_hd__fill_2
Xclkbuf_2_1_0_prog_clk clkbuf_2_1_0_prog_clk/A clkbuf_3_3_0_prog_clk/A PHY_39/VGND
+ _06_/VPWR sky130_fd_sc_hd__clkbuf_1
XFILLER_26_77 _16_/VGND _16_/VPWR sky130_fd_sc_hd__fill_1
XANTENNA_mem_top_ipin_2.sc_dff_compact_4_.sky130_fd_sc_hd__dfrbp_1_D mem_top_ipin_2.sc_dff_compact_4_.sky130_fd_sc_hd__dfrbp_1/D
+ PHY_39/VGND PHY_38/VPWR sky130_fd_sc_hd__diode_2
XFILLER_13_114 PHY_27/VGND _00_/VPWR sky130_fd_sc_hd__decap_4
XFILLER_9_118 PHY_19/VGND PHY_21/VPWR sky130_fd_sc_hd__decap_4
XFILLER_3_59 _04_/VGND _09_/VPWR sky130_fd_sc_hd__fill_2
XFILLER_8_140 PHY_19/VGND PHY_17/VPWR sky130_fd_sc_hd__fill_1
XFILLER_12_79 PHY_27/VGND PHY_25/VPWR sky130_fd_sc_hd__decap_12
XFILLER_12_24 PHY_27/VGND PHY_25/VPWR sky130_fd_sc_hd__fill_2
XANTENNA_mem_bottom_ipin_0.sc_dff_compact_1_.sky130_fd_sc_hd__dfrbp_1_RESET_B pReset
+ PHY_8/VGND _17_/VPWR sky130_fd_sc_hd__diode_2
XFILLER_5_143 PHY_8/VGND _17_/VPWR sky130_fd_sc_hd__fill_2
XFILLER_5_176 PHY_8/VGND _17_/VPWR sky130_fd_sc_hd__decap_3
XFILLER_4_80 PHY_8/VGND _09_/VPWR sky130_fd_sc_hd__decap_12
XANTENNA_mem_bottom_ipin_2.sc_dff_compact_2_.sky130_fd_sc_hd__dfrbp_1_RESET_B pReset
+ _17_/VGND PHY_17/VPWR sky130_fd_sc_hd__diode_2
XFILLER_23_89 _20_/VGND _20_/VPWR sky130_fd_sc_hd__fill_2
XANTENNA__12__A chanx_in_10_ PHY_43/VGND _12_/VPWR sky130_fd_sc_hd__diode_2
XFILLER_0_27 _24_/VGND PHY_0/VPWR sky130_fd_sc_hd__decap_4
XFILLER_29_3 _10_/VGND _10_/VPWR sky130_fd_sc_hd__decap_12
XFILLER_9_58 PHY_19/VGND PHY_21/VPWR sky130_fd_sc_hd__decap_3
XFILLER_18_56 PHY_39/VGND _06_/VPWR sky130_fd_sc_hd__fill_1
XANTENNA_mem_top_ipin_3.sc_dff_compact_2_.sky130_fd_sc_hd__dfrbp_1_D mem_top_ipin_3.sc_dff_compact_1_.sky130_fd_sc_hd__dfrbp_1/Q
+ _06_/VGND PHY_33/VPWR sky130_fd_sc_hd__diode_2
XFILLER_1_70 _24_/VGND _24_/VPWR sky130_fd_sc_hd__fill_1
XFILLER_29_44 _10_/VGND _10_/VPWR sky130_fd_sc_hd__decap_12
XFILLER_28_175 _10_/VGND _11_/VPWR sky130_fd_sc_hd__decap_4
Xclkbuf_3_3_0_prog_clk clkbuf_3_3_0_prog_clk/A clkbuf_3_3_0_prog_clk/X PHY_43/VGND
+ PHY_38/VPWR sky130_fd_sc_hd__clkbuf_1
XFILLER_20_68 PHY_43/VGND PHY_38/VPWR sky130_fd_sc_hd__fill_2
XFILLER_20_57 PHY_43/VGND PHY_38/VPWR sky130_fd_sc_hd__fill_2
XFILLER_19_120 PHY_39/VGND PHY_38/VPWR sky130_fd_sc_hd__fill_2
XFILLER_10_90 PHY_23/VGND PHY_21/VPWR sky130_fd_sc_hd__fill_2
Xmem_top_ipin_6.sc_dff_compact_5_.sky130_fd_sc_hd__dfrbp_1 mem_top_ipin_6.sc_dff_compact_4_.sky130_fd_sc_hd__dfrbp_1/Q
+ mem_top_ipin_6.sc_dff_compact_5_.sky130_fd_sc_hd__dfrbp_1/Q mem_top_ipin_6.sc_dff_compact_5_.sky130_fd_sc_hd__dfrbp_1/Q_N
+ pReset clkbuf_3_6_0_prog_clk/X _16_/VGND _11_/VPWR sky130_fd_sc_hd__dfrbp_1
XFILLER_25_134 _27_/VGND _16_/VPWR sky130_fd_sc_hd__fill_2
XFILLER_25_123 _27_/VGND _16_/VPWR sky130_fd_sc_hd__fill_2
XANTENNA__20__A chanx_in_1_ _20_/VGND _20_/VPWR sky130_fd_sc_hd__diode_2
XFILLER_16_178 _06_/VGND PHY_33/VPWR sky130_fd_sc_hd__fill_1
XFILLER_16_145 _06_/VGND PHY_33/VPWR sky130_fd_sc_hd__decap_8
XFILLER_11_3 PHY_23/VGND PHY_25/VPWR sky130_fd_sc_hd__decap_12
XFILLER_22_115 _20_/VGND _12_/VPWR sky130_fd_sc_hd__fill_2
XANTENNA__15__A chanx_in_13_ _16_/VGND _11_/VPWR sky130_fd_sc_hd__diode_2
XFILLER_13_137 PHY_27/VGND _00_/VPWR sky130_fd_sc_hd__fill_2
XFILLER_3_16 _04_/VGND _09_/VPWR sky130_fd_sc_hd__fill_2
XFILLER_3_49 _04_/VGND _09_/VPWR sky130_fd_sc_hd__decap_4
XANTENNA_mem_top_ipin_4.sc_dff_compact_0_.sky130_fd_sc_hd__dfrbp_1_D mem_top_ipin_3.sc_dff_compact_5_.sky130_fd_sc_hd__dfrbp_1/Q
+ PHY_19/VGND PHY_21/VPWR sky130_fd_sc_hd__diode_2
XFILLER_10_118 PHY_23/VGND PHY_21/VPWR sky130_fd_sc_hd__decap_12
XANTENNA_mem_top_ipin_3.sc_dff_compact_5_.sky130_fd_sc_hd__dfrbp_1_D mem_top_ipin_3.sc_dff_compact_4_.sky130_fd_sc_hd__dfrbp_1/Q
+ PHY_23/VGND PHY_21/VPWR sky130_fd_sc_hd__diode_2
Xmem_top_ipin_4.sc_dff_compact_0_.sky130_fd_sc_hd__dfrbp_1 mem_top_ipin_3.sc_dff_compact_5_.sky130_fd_sc_hd__dfrbp_1/Q
+ mem_top_ipin_4.sc_dff_compact_0_.sky130_fd_sc_hd__dfrbp_1/Q mem_top_ipin_4.sc_dff_compact_0_.sky130_fd_sc_hd__dfrbp_1/Q_N
+ pReset clkbuf_3_1_0_prog_clk/X PHY_23/VGND PHY_21/VPWR sky130_fd_sc_hd__dfrbp_1
XFILLER_5_111 PHY_8/VGND _17_/VPWR sky130_fd_sc_hd__fill_1
XFILLER_23_35 _20_/VGND _20_/VPWR sky130_fd_sc_hd__decap_12
XFILLER_2_158 _04_/VGND _24_/VPWR sky130_fd_sc_hd__fill_1
Xmem_top_ipin_1.sc_dff_compact_1_.sky130_fd_sc_hd__dfrbp_1 mem_top_ipin_1.sc_dff_compact_0_.sky130_fd_sc_hd__dfrbp_1/Q
+ mem_top_ipin_1.sc_dff_compact_1_.sky130_fd_sc_hd__dfrbp_1/Q mem_top_ipin_1.sc_dff_compact_1_.sky130_fd_sc_hd__dfrbp_1/Q_N
+ pReset clkbuf_3_5_0_prog_clk/X PHY_19/VGND PHY_21/VPWR sky130_fd_sc_hd__dfrbp_1
XFILLER_13_90 PHY_27/VGND _00_/VPWR sky130_fd_sc_hd__decap_12
XFILLER_9_48 PHY_19/VGND PHY_21/VPWR sky130_fd_sc_hd__fill_2
XANTENNA_mem_top_ipin_6.sc_dff_compact_0_.sky130_fd_sc_hd__dfrbp_1_RESET_B pReset
+ _27_/VGND _20_/VPWR sky130_fd_sc_hd__diode_2
XFILLER_18_46 PHY_39/VGND _06_/VPWR sky130_fd_sc_hd__fill_2
XFILLER_18_24 PHY_39/VGND _06_/VPWR sky130_fd_sc_hd__decap_6
Xmem_bottom_ipin_0.sc_dff_compact_3_.sky130_fd_sc_hd__dfrbp_1 mem_bottom_ipin_0.sc_dff_compact_2_.sky130_fd_sc_hd__dfrbp_1/Q
+ mem_bottom_ipin_0.sc_dff_compact_4_.sky130_fd_sc_hd__dfrbp_1/D mem_bottom_ipin_0.sc_dff_compact_3_.sky130_fd_sc_hd__dfrbp_1/Q_N
+ pReset clkbuf_3_0_0_prog_clk/X PHY_8/VGND _09_/VPWR sky130_fd_sc_hd__dfrbp_1
XANTENNA__23__A chanx_in_4_ _27_/VGND _20_/VPWR sky130_fd_sc_hd__diode_2
X_28_ chanx_in_9_ chanx_out_9_ _24_/VGND _24_/VPWR sky130_fd_sc_hd__buf_2
XFILLER_29_56 _10_/VGND _10_/VPWR sky130_fd_sc_hd__decap_6
XFILLER_28_154 _10_/VGND _11_/VPWR sky130_fd_sc_hd__decap_4
XANTENNA_mem_top_ipin_4.sc_dff_compact_3_.sky130_fd_sc_hd__dfrbp_1_D mem_top_ipin_4.sc_dff_compact_3_.sky130_fd_sc_hd__dfrbp_1/D
+ PHY_23/VGND PHY_21/VPWR sky130_fd_sc_hd__diode_2
XANTENNA__18__A chanx_in_16_ _24_/VGND _24_/VPWR sky130_fd_sc_hd__diode_2
XPHY_130 _16_/VGND _11_/VPWR sky130_fd_sc_hd__tapvpwrvgnd_1
XFILLER_21_90 PHY_43/VGND _12_/VPWR sky130_fd_sc_hd__decap_8
XFILLER_7_70 _17_/VGND PHY_17/VPWR sky130_fd_sc_hd__decap_8
XFILLER_7_81 _17_/VGND PHY_17/VPWR sky130_fd_sc_hd__fill_2
XFILLER_26_57 _16_/VGND _16_/VPWR sky130_fd_sc_hd__decap_12
XFILLER_21_160 PHY_43/VGND _12_/VPWR sky130_fd_sc_hd__decap_12
XFILLER_13_127 PHY_27/VGND _00_/VPWR sky130_fd_sc_hd__fill_2
XANTENNA__26__A chanx_in_7_ _27_/VGND _16_/VPWR sky130_fd_sc_hd__diode_2
XANTENNA_mem_top_ipin_5.sc_dff_compact_1_.sky130_fd_sc_hd__dfrbp_1_D mem_top_ipin_5.sc_dff_compact_1_.sky130_fd_sc_hd__dfrbp_1/D
+ _06_/VGND PHY_33/VPWR sky130_fd_sc_hd__diode_2
XFILLER_5_123 PHY_8/VGND _17_/VPWR sky130_fd_sc_hd__fill_2
XFILLER_23_47 _20_/VGND _20_/VPWR sky130_fd_sc_hd__decap_8
XFILLER_4_93 PHY_8/VGND _09_/VPWR sky130_fd_sc_hd__decap_12
XANTENNA_mem_top_ipin_1.sc_dff_compact_5_.sky130_fd_sc_hd__dfrbp_1_CLK clkbuf_3_7_0_prog_clk/X
+ _00_/VGND PHY_33/VPWR sky130_fd_sc_hd__diode_2
XFILLER_1_170 _24_/VGND _24_/VPWR sky130_fd_sc_hd__decap_8
XANTENNA_mem_top_ipin_0.sc_dff_compact_4_.sky130_fd_sc_hd__dfrbp_1_CLK clkbuf_3_5_0_prog_clk/X
+ _04_/VGND _24_/VPWR sky130_fd_sc_hd__diode_2
XANTENNA_clkbuf_3_3_0_prog_clk_A clkbuf_3_3_0_prog_clk/A PHY_43/VGND PHY_38/VPWR sky130_fd_sc_hd__diode_2
XFILLER_1_3 _24_/VGND _24_/VPWR sky130_fd_sc_hd__decap_4
X_27_ chanx_in_8_ chanx_out_8_ _27_/VGND _16_/VPWR sky130_fd_sc_hd__buf_2
XFILLER_20_37 PHY_43/VGND PHY_38/VPWR sky130_fd_sc_hd__fill_2
XFILLER_20_15 PHY_43/VGND PHY_38/VPWR sky130_fd_sc_hd__fill_1
XFILLER_19_111 PHY_39/VGND PHY_38/VPWR sky130_fd_sc_hd__decap_3
XFILLER_10_81 PHY_23/VGND PHY_21/VPWR sky130_fd_sc_hd__decap_3
XANTENNA_mem_bottom_ipin_0.sc_dff_compact_0_.sky130_fd_sc_hd__dfrbp_1_D ccff_head
+ PHY_8/VGND _09_/VPWR sky130_fd_sc_hd__diode_2
XFILLER_25_114 _27_/VGND _16_/VPWR sky130_fd_sc_hd__decap_4
XFILLER_15_15 _00_/VGND PHY_33/VPWR sky130_fd_sc_hd__fill_2
XPHY_131 _16_/VGND _11_/VPWR sky130_fd_sc_hd__tapvpwrvgnd_1
XPHY_120 _20_/VGND _20_/VPWR sky130_fd_sc_hd__tapvpwrvgnd_1
XANTENNA_mem_top_ipin_5.sc_dff_compact_4_.sky130_fd_sc_hd__dfrbp_1_D mem_top_ipin_5.sc_dff_compact_3_.sky130_fd_sc_hd__dfrbp_1/Q
+ _27_/VGND _20_/VPWR sky130_fd_sc_hd__diode_2
XFILLER_22_139 _20_/VGND _12_/VPWR sky130_fd_sc_hd__decap_12
XPHY_0 _24_/VGND PHY_0/VPWR sky130_fd_sc_hd__decap_3
XFILLER_26_69 _16_/VGND _16_/VPWR sky130_fd_sc_hd__decap_8
XFILLER_26_14 _16_/VGND _16_/VPWR sky130_fd_sc_hd__fill_2
XFILLER_21_172 PHY_43/VGND _12_/VPWR sky130_fd_sc_hd__decap_6
Xmem_top_ipin_5.sc_dff_compact_4_.sky130_fd_sc_hd__dfrbp_1 mem_top_ipin_5.sc_dff_compact_3_.sky130_fd_sc_hd__dfrbp_1/Q
+ mem_top_ipin_5.sc_dff_compact_4_.sky130_fd_sc_hd__dfrbp_1/Q mem_top_ipin_5.sc_dff_compact_4_.sky130_fd_sc_hd__dfrbp_1/Q_N
+ pReset clkbuf_3_2_0_prog_clk/X _20_/VGND _20_/VPWR sky130_fd_sc_hd__dfrbp_1
XFILLER_8_143 PHY_19/VGND PHY_17/VPWR sky130_fd_sc_hd__fill_2
XFILLER_8_154 PHY_19/VGND PHY_17/VPWR sky130_fd_sc_hd__decap_12
XANTENNA_mem_bottom_ipin_2.sc_dff_compact_0_.sky130_fd_sc_hd__dfrbp_1_CLK clkbuf_3_1_0_prog_clk/X
+ _17_/VGND PHY_17/VPWR sky130_fd_sc_hd__diode_2
Xmem_top_ipin_2.sc_dff_compact_5_.sky130_fd_sc_hd__dfrbp_1 mem_top_ipin_2.sc_dff_compact_4_.sky130_fd_sc_hd__dfrbp_1/Q
+ mem_top_ipin_3.sc_dff_compact_0_.sky130_fd_sc_hd__dfrbp_1/D mem_top_ipin_2.sc_dff_compact_5_.sky130_fd_sc_hd__dfrbp_1/Q_N
+ pReset clkbuf_3_6_0_prog_clk/X _06_/VGND PHY_33/VPWR sky130_fd_sc_hd__dfrbp_1
XANTENNA_mem_top_ipin_5.sc_dff_compact_0_.sky130_fd_sc_hd__dfrbp_1_RESET_B pReset
+ _00_/VGND PHY_33/VPWR sky130_fd_sc_hd__diode_2
Xclkbuf_2_0_0_prog_clk clkbuf_2_1_0_prog_clk/A clkbuf_2_0_0_prog_clk/X PHY_23/VGND
+ PHY_25/VPWR sky130_fd_sc_hd__clkbuf_1
XFILLER_5_135 PHY_8/VGND _17_/VPWR sky130_fd_sc_hd__fill_2
XFILLER_5_168 PHY_8/VGND _17_/VPWR sky130_fd_sc_hd__decap_8
XFILLER_23_59 _20_/VGND _20_/VPWR sky130_fd_sc_hd__fill_2
XFILLER_4_61 PHY_8/VGND _09_/VPWR sky130_fd_sc_hd__fill_1
XANTENNA_mem_top_ipin_7.sc_dff_compact_1_.sky130_fd_sc_hd__dfrbp_1_RESET_B pReset
+ _27_/VGND _16_/VPWR sky130_fd_sc_hd__diode_2
XFILLER_2_149 _04_/VGND _24_/VPWR sky130_fd_sc_hd__decap_4
XANTENNA_mem_top_ipin_6.sc_dff_compact_2_.sky130_fd_sc_hd__dfrbp_1_D mem_top_ipin_6.sc_dff_compact_1_.sky130_fd_sc_hd__dfrbp_1/Q
+ _27_/VGND _20_/VPWR sky130_fd_sc_hd__diode_2
XANTENNA_mem_bottom_ipin_0.sc_dff_compact_3_.sky130_fd_sc_hd__dfrbp_1_D mem_bottom_ipin_0.sc_dff_compact_2_.sky130_fd_sc_hd__dfrbp_1/Q
+ _04_/VGND _24_/VPWR sky130_fd_sc_hd__diode_2
XFILLER_1_160 _24_/VGND _24_/VPWR sky130_fd_sc_hd__fill_2
XFILLER_18_15 PHY_39/VGND _06_/VPWR sky130_fd_sc_hd__decap_3
Xmem_bottom_ipin_2.sc_dff_compact_1_.sky130_fd_sc_hd__dfrbp_1 mem_bottom_ipin_2.sc_dff_compact_0_.sky130_fd_sc_hd__dfrbp_1/Q
+ mem_bottom_ipin_2.sc_dff_compact_2_.sky130_fd_sc_hd__dfrbp_1/D mem_bottom_ipin_2.sc_dff_compact_1_.sky130_fd_sc_hd__dfrbp_1/Q_N
+ pReset clkbuf_3_4_0_prog_clk/X _04_/VGND _24_/VPWR sky130_fd_sc_hd__dfrbp_1
XFILLER_27_3 _16_/VGND _11_/VPWR sky130_fd_sc_hd__fill_2
Xmem_top_ipin_0.sc_dff_compact_0_.sky130_fd_sc_hd__dfrbp_1 mem_top_ipin_0.sc_dff_compact_0_.sky130_fd_sc_hd__dfrbp_1/D
+ mem_top_ipin_0.sc_dff_compact_0_.sky130_fd_sc_hd__dfrbp_1/Q mem_top_ipin_0.sc_dff_compact_0_.sky130_fd_sc_hd__dfrbp_1/Q_N
+ pReset clkbuf_3_4_0_prog_clk/X PHY_19/VGND PHY_21/VPWR sky130_fd_sc_hd__dfrbp_1
X_26_ chanx_in_7_ chanx_out_7_ _16_/VGND _16_/VPWR sky130_fd_sc_hd__buf_2
XFILLER_1_73 _24_/VGND _24_/VPWR sky130_fd_sc_hd__fill_2
XFILLER_1_62 _24_/VGND _24_/VPWR sky130_fd_sc_hd__fill_2
XFILLER_1_51 _24_/VGND _24_/VPWR sky130_fd_sc_hd__fill_2
XFILLER_19_178 PHY_39/VGND PHY_38/VPWR sky130_fd_sc_hd__fill_1
XFILLER_19_123 PHY_39/VGND PHY_38/VPWR sky130_fd_sc_hd__fill_2
XFILLER_10_93 PHY_23/VGND PHY_21/VPWR sky130_fd_sc_hd__fill_2
XFILLER_25_159 _27_/VGND _16_/VPWR sky130_fd_sc_hd__fill_2
X_09_ _09_/HI bottom_grid_pin_0_ _04_/VGND _09_/VPWR sky130_fd_sc_hd__conb_1
XANTENNA_mem_bottom_ipin_0.sc_dff_compact_2_.sky130_fd_sc_hd__dfrbp_1_RESET_B pReset
+ _04_/VGND _09_/VPWR sky130_fd_sc_hd__diode_2
XPHY_132 _10_/VGND _11_/VPWR sky130_fd_sc_hd__tapvpwrvgnd_1
XPHY_121 _20_/VGND _20_/VPWR sky130_fd_sc_hd__tapvpwrvgnd_1
XPHY_110 PHY_39/VGND PHY_38/VPWR sky130_fd_sc_hd__tapvpwrvgnd_1
XFILLER_16_126 _06_/VGND PHY_33/VPWR sky130_fd_sc_hd__fill_2
XANTENNA_mem_top_ipin_7.sc_dff_compact_0_.sky130_fd_sc_hd__dfrbp_1_D mem_top_ipin_6.sc_dff_compact_5_.sky130_fd_sc_hd__dfrbp_1/Q
+ _20_/VGND _20_/VPWR sky130_fd_sc_hd__diode_2
XANTENNA_mem_top_ipin_5.sc_dff_compact_1_.sky130_fd_sc_hd__dfrbp_1_CLK clkbuf_3_2_0_prog_clk/X
+ PHY_39/VGND _06_/VPWR sky130_fd_sc_hd__diode_2
XPHY_1 _24_/VGND PHY_0/VPWR sky130_fd_sc_hd__decap_3
XANTENNA_mem_bottom_ipin_1.sc_dff_compact_1_.sky130_fd_sc_hd__dfrbp_1_D mem_bottom_ipin_1.sc_dff_compact_0_.sky130_fd_sc_hd__dfrbp_1/Q
+ _24_/VGND PHY_0/VPWR sky130_fd_sc_hd__diode_2
XANTENNA_mem_top_ipin_4.sc_dff_compact_0_.sky130_fd_sc_hd__dfrbp_1_CLK clkbuf_3_1_0_prog_clk/X
+ PHY_19/VGND PHY_21/VPWR sky130_fd_sc_hd__diode_2
XANTENNA_mem_bottom_ipin_2.sc_dff_compact_3_.sky130_fd_sc_hd__dfrbp_1_RESET_B pReset
+ PHY_19/VGND PHY_21/VPWR sky130_fd_sc_hd__diode_2
XANTENNA_mem_top_ipin_6.sc_dff_compact_2_.sky130_fd_sc_hd__dfrbp_1_CLK clkbuf_3_2_0_prog_clk/X
+ _16_/VGND _16_/VPWR sky130_fd_sc_hd__diode_2
XFILLER_26_26 _16_/VGND _16_/VPWR sky130_fd_sc_hd__fill_1
Xclkbuf_3_2_0_prog_clk clkbuf_3_3_0_prog_clk/A clkbuf_3_2_0_prog_clk/X PHY_43/VGND
+ PHY_38/VPWR sky130_fd_sc_hd__clkbuf_1
XANTENNA_mem_top_ipin_7.sc_dff_compact_3_.sky130_fd_sc_hd__dfrbp_1_CLK clkbuf_3_7_0_prog_clk/X
+ _16_/VGND _16_/VPWR sky130_fd_sc_hd__diode_2
XFILLER_16_81 _06_/VGND PHY_33/VPWR sky130_fd_sc_hd__decap_8
XFILLER_8_166 PHY_19/VGND PHY_17/VPWR sky130_fd_sc_hd__decap_12
XANTENNA_mem_top_ipin_6.sc_dff_compact_5_.sky130_fd_sc_hd__dfrbp_1_D mem_top_ipin_6.sc_dff_compact_4_.sky130_fd_sc_hd__dfrbp_1/Q
+ _10_/VGND _11_/VPWR sky130_fd_sc_hd__diode_2
XFILLER_12_28 PHY_27/VGND PHY_25/VPWR sky130_fd_sc_hd__decap_3
XFILLER_5_114 PHY_8/VGND _17_/VPWR sky130_fd_sc_hd__fill_2
XFILLER_2_128 _04_/VGND _24_/VPWR sky130_fd_sc_hd__decap_3
XFILLER_9_29 PHY_19/VGND PHY_21/VPWR sky130_fd_sc_hd__decap_12
XFILLER_29_15 _10_/VGND _10_/VPWR sky130_fd_sc_hd__decap_12
XANTENNA_mem_top_ipin_7.sc_dff_compact_3_.sky130_fd_sc_hd__dfrbp_1_D mem_top_ipin_7.sc_dff_compact_3_.sky130_fd_sc_hd__dfrbp_1/D
+ _27_/VGND _16_/VPWR sky130_fd_sc_hd__diode_2
X_25_ chanx_in_6_ chanx_out_6_ _24_/VGND _24_/VPWR sky130_fd_sc_hd__buf_2
X_08_ _08_/HI bottom_grid_pin_10_ _16_/VGND _11_/VPWR sky130_fd_sc_hd__conb_1
XANTENNA_clkbuf_2_2_0_prog_clk_A clkbuf_2_3_0_prog_clk/A PHY_23/VGND PHY_25/VPWR sky130_fd_sc_hd__diode_2
XFILLER_25_127 _27_/VGND _16_/VPWR sky130_fd_sc_hd__decap_4
XPHY_100 _00_/VGND PHY_33/VPWR sky130_fd_sc_hd__tapvpwrvgnd_1
XPHY_133 _10_/VGND _11_/VPWR sky130_fd_sc_hd__tapvpwrvgnd_1
XPHY_122 _27_/VGND _20_/VPWR sky130_fd_sc_hd__tapvpwrvgnd_1
XFILLER_22_119 _20_/VGND _12_/VPWR sky130_fd_sc_hd__decap_12
XPHY_111 PHY_39/VGND PHY_38/VPWR sky130_fd_sc_hd__tapvpwrvgnd_1
XPHY_2 _24_/VGND _24_/VPWR sky130_fd_sc_hd__decap_3
XFILLER_7_62 _17_/VGND PHY_17/VPWR sky130_fd_sc_hd__fill_2
XANTENNA_mem_top_ipin_4.sc_dff_compact_0_.sky130_fd_sc_hd__dfrbp_1_RESET_B pReset
+ PHY_19/VGND PHY_21/VPWR sky130_fd_sc_hd__diode_2
XFILLER_16_93 _06_/VGND PHY_33/VPWR sky130_fd_sc_hd__fill_2
XFILLER_12_130 PHY_27/VGND PHY_25/VPWR sky130_fd_sc_hd__decap_12
XFILLER_8_178 PHY_19/VGND PHY_17/VPWR sky130_fd_sc_hd__fill_1
XANTENNA_mem_top_ipin_6.sc_dff_compact_1_.sky130_fd_sc_hd__dfrbp_1_RESET_B pReset
+ _16_/VGND _11_/VPWR sky130_fd_sc_hd__diode_2
Xmem_top_ipin_7.sc_dff_compact_2_.sky130_fd_sc_hd__dfrbp_1 mem_top_ipin_7.sc_dff_compact_1_.sky130_fd_sc_hd__dfrbp_1/Q
+ mem_top_ipin_7.sc_dff_compact_3_.sky130_fd_sc_hd__dfrbp_1/D mem_top_ipin_7.sc_dff_compact_2_.sky130_fd_sc_hd__dfrbp_1/Q_N
+ pReset clkbuf_3_6_0_prog_clk/X _27_/VGND _20_/VPWR sky130_fd_sc_hd__dfrbp_1
XANTENNA_mem_bottom_ipin_2.sc_dff_compact_2_.sky130_fd_sc_hd__dfrbp_1_D mem_bottom_ipin_2.sc_dff_compact_2_.sky130_fd_sc_hd__dfrbp_1/D
+ _17_/VGND _17_/VPWR sky130_fd_sc_hd__diode_2
Xmem_top_ipin_4.sc_dff_compact_3_.sky130_fd_sc_hd__dfrbp_1 mem_top_ipin_4.sc_dff_compact_3_.sky130_fd_sc_hd__dfrbp_1/D
+ mem_top_ipin_4.sc_dff_compact_4_.sky130_fd_sc_hd__dfrbp_1/D mem_top_ipin_4.sc_dff_compact_3_.sky130_fd_sc_hd__dfrbp_1/Q_N
+ pReset clkbuf_3_0_0_prog_clk/X PHY_19/VGND PHY_21/VPWR sky130_fd_sc_hd__dfrbp_1
XFILLER_2_118 _04_/VGND _24_/VPWR sky130_fd_sc_hd__decap_6
Xmem_top_ipin_1.sc_dff_compact_4_.sky130_fd_sc_hd__dfrbp_1 mem_top_ipin_1.sc_dff_compact_4_.sky130_fd_sc_hd__dfrbp_1/D
+ mem_top_ipin_1.sc_dff_compact_5_.sky130_fd_sc_hd__dfrbp_1/D mem_top_ipin_1.sc_dff_compact_4_.sky130_fd_sc_hd__dfrbp_1/Q_N
+ pReset clkbuf_3_5_0_prog_clk/X PHY_27/VGND _00_/VPWR sky130_fd_sc_hd__dfrbp_1
XFILLER_24_93 _27_/VGND _20_/VPWR sky130_fd_sc_hd__fill_2
XFILLER_24_60 _27_/VGND _20_/VPWR sky130_fd_sc_hd__fill_1
XFILLER_20_18 PHY_43/VGND PHY_38/VPWR sky130_fd_sc_hd__fill_2
X_24_ chanx_in_5_ chanx_out_5_ _24_/VGND _24_/VPWR sky130_fd_sc_hd__buf_2
XFILLER_29_27 _10_/VGND _10_/VPWR sky130_fd_sc_hd__decap_4
XFILLER_28_158 _10_/VGND _11_/VPWR sky130_fd_sc_hd__fill_1
XFILLER_28_147 _10_/VGND _11_/VPWR sky130_fd_sc_hd__fill_1
XFILLER_10_73 PHY_23/VGND PHY_21/VPWR sky130_fd_sc_hd__decap_8
XFILLER_10_40 PHY_23/VGND PHY_21/VPWR sky130_fd_sc_hd__fill_2
XFILLER_19_103 PHY_39/VGND PHY_38/VPWR sky130_fd_sc_hd__decap_8
Xmem_bottom_ipin_1.sc_dff_compact_0_.sky130_fd_sc_hd__dfrbp_1 mem_bottom_ipin_0.sc_dff_compact_5_.sky130_fd_sc_hd__dfrbp_1/Q
+ mem_bottom_ipin_1.sc_dff_compact_0_.sky130_fd_sc_hd__dfrbp_1/Q mem_bottom_ipin_1.sc_dff_compact_0_.sky130_fd_sc_hd__dfrbp_1/Q_N
+ pReset clkbuf_3_1_0_prog_clk/X _04_/VGND _24_/VPWR sky130_fd_sc_hd__dfrbp_1
X_07_ _07_/HI bottom_grid_pin_12_ _10_/VGND _11_/VPWR sky130_fd_sc_hd__conb_1
XANTENNA_mem_bottom_ipin_2.sc_dff_compact_5_.sky130_fd_sc_hd__dfrbp_1_D mem_bottom_ipin_2.sc_dff_compact_4_.sky130_fd_sc_hd__dfrbp_1/Q
+ _17_/VGND _17_/VPWR sky130_fd_sc_hd__diode_2
XPHY_134 _10_/VGND _11_/VPWR sky130_fd_sc_hd__tapvpwrvgnd_1
XPHY_123 _27_/VGND _20_/VPWR sky130_fd_sc_hd__tapvpwrvgnd_1
XPHY_112 PHY_43/VGND PHY_38/VPWR sky130_fd_sc_hd__tapvpwrvgnd_1
XPHY_101 _00_/VGND PHY_33/VPWR sky130_fd_sc_hd__tapvpwrvgnd_1
XFILLER_22_109 _20_/VGND _12_/VPWR sky130_fd_sc_hd__decap_4
XPHY_3 _24_/VGND _24_/VPWR sky130_fd_sc_hd__decap_3
XFILLER_7_85 _17_/VGND PHY_17/VPWR sky130_fd_sc_hd__fill_2
XFILLER_21_131 PHY_43/VGND _12_/VPWR sky130_fd_sc_hd__fill_2
XFILLER_16_61 _06_/VGND PHY_33/VPWR sky130_fd_sc_hd__fill_2
XFILLER_12_142 PHY_27/VGND PHY_25/VPWR sky130_fd_sc_hd__fill_1
XFILLER_8_124 PHY_19/VGND PHY_17/VPWR sky130_fd_sc_hd__decap_12
XFILLER_5_127 PHY_8/VGND _17_/VPWR sky130_fd_sc_hd__decap_8
XFILLER_4_20 PHY_8/VGND _09_/VPWR sky130_fd_sc_hd__decap_8
XFILLER_4_64 PHY_8/VGND _09_/VPWR sky130_fd_sc_hd__fill_2
XFILLER_13_62 PHY_27/VGND _00_/VPWR sky130_fd_sc_hd__fill_2
XANTENNA_mem_bottom_ipin_0.sc_dff_compact_5_.sky130_fd_sc_hd__dfrbp_1_CLK clkbuf_3_1_0_prog_clk/X
+ PHY_8/VGND _09_/VPWR sky130_fd_sc_hd__diode_2
X_23_ chanx_in_4_ chanx_out_4_ _16_/VGND _16_/VPWR sky130_fd_sc_hd__buf_2
XFILLER_1_98 _24_/VGND _24_/VPWR sky130_fd_sc_hd__fill_2
XFILLER_1_32 _24_/VGND _24_/VPWR sky130_fd_sc_hd__fill_2
XFILLER_19_148 PHY_39/VGND PHY_38/VPWR sky130_fd_sc_hd__decap_12
XANTENNA_mem_top_ipin_3.sc_dff_compact_0_.sky130_fd_sc_hd__dfrbp_1_RESET_B pReset
+ PHY_43/VGND PHY_38/VPWR sky130_fd_sc_hd__diode_2
XFILLER_25_3 _27_/VGND _16_/VPWR sky130_fd_sc_hd__decap_6
X_06_ _06_/HI bottom_grid_pin_14_ _06_/VGND _06_/VPWR sky130_fd_sc_hd__conb_1
XPHY_135 _10_/VGND _10_/VPWR sky130_fd_sc_hd__tapvpwrvgnd_1
XFILLER_24_140 _27_/VGND _20_/VPWR sky130_fd_sc_hd__fill_2
XPHY_124 _27_/VGND _20_/VPWR sky130_fd_sc_hd__tapvpwrvgnd_1
XFILLER_21_62 PHY_43/VGND _12_/VPWR sky130_fd_sc_hd__fill_2
XFILLER_21_51 PHY_43/VGND _12_/VPWR sky130_fd_sc_hd__fill_2
XPHY_113 PHY_43/VGND PHY_38/VPWR sky130_fd_sc_hd__tapvpwrvgnd_1
XANTENNA_mem_top_ipin_5.sc_dff_compact_1_.sky130_fd_sc_hd__dfrbp_1_RESET_B pReset