* NGSPICE file created from cby_0__1_.ext - technology: sky130A

* Black-box entry subcircuit for sky130_fd_sc_hd__dfrbp_1 abstract view
.subckt sky130_fd_sc_hd__dfrbp_1 D Q Q_N RESET_B CLK VGND VPWR
.ends

* Black-box entry subcircuit for sky130_fd_sc_hd__fill_2 abstract view
.subckt sky130_fd_sc_hd__fill_2 VGND VPWR
.ends

* Black-box entry subcircuit for sky130_fd_sc_hd__diode_2 abstract view
.subckt sky130_fd_sc_hd__diode_2 DIODE VGND VPWR
.ends

* Black-box entry subcircuit for sky130_fd_sc_hd__decap_12 abstract view
.subckt sky130_fd_sc_hd__decap_12 VGND VPWR
.ends

* Black-box entry subcircuit for sky130_fd_sc_hd__decap_4 abstract view
.subckt sky130_fd_sc_hd__decap_4 VGND VPWR
.ends

* Black-box entry subcircuit for sky130_fd_sc_hd__decap_6 abstract view
.subckt sky130_fd_sc_hd__decap_6 VGND VPWR
.ends

* Black-box entry subcircuit for sky130_fd_sc_hd__tapvpwrvgnd_1 abstract view
.subckt sky130_fd_sc_hd__tapvpwrvgnd_1 VGND VPWR
.ends

* Black-box entry subcircuit for sky130_fd_sc_hd__decap_3 abstract view
.subckt sky130_fd_sc_hd__decap_3 VGND VPWR
.ends

* Black-box entry subcircuit for sky130_fd_sc_hd__decap_8 abstract view
.subckt sky130_fd_sc_hd__decap_8 VGND VPWR
.ends

* Black-box entry subcircuit for sky130_fd_sc_hd__fill_1 abstract view
.subckt sky130_fd_sc_hd__fill_1 VGND VPWR
.ends

* Black-box entry subcircuit for sky130_fd_sc_hd__clkbuf_1 abstract view
.subckt sky130_fd_sc_hd__clkbuf_1 A X VGND VPWR
.ends

* Black-box entry subcircuit for sky130_fd_sc_hd__buf_2 abstract view
.subckt sky130_fd_sc_hd__buf_2 A X VGND VPWR
.ends

* Black-box entry subcircuit for sky130_fd_sc_hd__conb_1 abstract view
.subckt sky130_fd_sc_hd__conb_1 HI LO VGND VPWR
.ends

* Black-box entry subcircuit for sky130_fd_sc_hd__clkbuf_16 abstract view
.subckt sky130_fd_sc_hd__clkbuf_16 A X VGND VPWR
.ends

.subckt cby_0__1_ chany_out_7_ chany_in_6_ chany_in_2_ chany_out_15_ chany_in_1_ left_grid_pin_8_
+ left_grid_pin_12_ chany_in_14_ chany_out_9_ chany_in_15_ chany_out_16_ chany_in_0_
+ left_grid_pin_14_ chany_in_4_ chany_in_3_ chany_out_1_ chany_out_6_ chany_out_11_
+ chany_out_10_ chany_out_0_ chany_out_4_ chany_in_8_ chany_in_9_ chany_out_2_ chany_in_16_
+ left_grid_pin_0_ chany_in_12_ prog_clk chany_in_13_ chany_out_17_ left_grid_pin_4_
+ right_grid_pin_3_ chany_in_11_ chany_in_17_ chany_out_8_ ccff_tail ccff_head pReset
+ left_grid_pin_10_ left_grid_pin_6_ left_grid_pin_2_ chany_out_13_ chany_out_3_ chany_in_5_
+ chany_out_14_ chany_out_5_ chany_in_10_ chany_in_7_ right_grid_pin_7_ chany_out_12_
Xmem_right_ipin_7.sc_dff_compact_2_.sky130_fd_sc_hd__dfrbp_1 mem_right_ipin_7.sc_dff_compact_1_.sky130_fd_sc_hd__dfrbp_1/Q
+ mem_right_ipin_7.sc_dff_compact_2_.sky130_fd_sc_hd__dfrbp_1/Q mem_right_ipin_7.sc_dff_compact_2_.sky130_fd_sc_hd__dfrbp_1/Q_N
+ pReset clkbuf_2_0_0_prog_clk/X PHY_93/VGND PHY_17/VPWR sky130_fd_sc_hd__dfrbp_1
XFILLER_12_32 PHY_27/VGND PHY_25/VPWR sky130_fd_sc_hd__fill_2
XANTENNA_mem_right_ipin_7.sc_dff_compact_3_.sky130_fd_sc_hd__dfrbp_1_D mem_right_ipin_7.sc_dff_compact_2_.sky130_fd_sc_hd__dfrbp_1/Q
+ PHY_8/VGND PHY_13/VPWR sky130_fd_sc_hd__diode_2
Xmem_right_ipin_4.sc_dff_compact_3_.sky130_fd_sc_hd__dfrbp_1 mem_right_ipin_4.sc_dff_compact_2_.sky130_fd_sc_hd__dfrbp_1/Q
+ mem_right_ipin_4.sc_dff_compact_3_.sky130_fd_sc_hd__dfrbp_1/Q mem_right_ipin_4.sc_dff_compact_3_.sky130_fd_sc_hd__dfrbp_1/Q_N
+ pReset clkbuf_2_2_0_prog_clk/X PHY_19/VGND PHY_17/VPWR sky130_fd_sc_hd__dfrbp_1
XFILLER_5_184 PHY_8/VGND PHY_13/VPWR sky130_fd_sc_hd__decap_12
XFILLER_23_86 PHY_47/VGND PHY_49/VPWR sky130_fd_sc_hd__decap_12
Xmem_right_ipin_1.sc_dff_compact_4_.sky130_fd_sc_hd__dfrbp_1 mem_right_ipin_1.sc_dff_compact_4_.sky130_fd_sc_hd__dfrbp_1/D
+ mem_right_ipin_1.sc_dff_compact_4_.sky130_fd_sc_hd__dfrbp_1/Q mem_right_ipin_1.sc_dff_compact_4_.sky130_fd_sc_hd__dfrbp_1/Q_N
+ pReset clkbuf_2_1_0_prog_clk/X PHY_43/VGND PHY_40/VPWR sky130_fd_sc_hd__dfrbp_1
XFILLER_2_154 _06_/VGND _05_/VPWR sky130_fd_sc_hd__fill_2
XFILLER_9_99 PHY_19/VGND PHY_21/VPWR sky130_fd_sc_hd__decap_4
XANTENNA_clkbuf_2_1_0_prog_clk_A clkbuf_2_1_0_prog_clk/A PHY_31/VGND PHY_33/VPWR sky130_fd_sc_hd__diode_2
XFILLER_29_139 _13_/VGND _10_/VPWR sky130_fd_sc_hd__decap_12
XFILLER_29_30 _13_/VGND _10_/VPWR sky130_fd_sc_hd__decap_12
XFILLER_20_32 PHY_43/VGND PHY_40/VPWR sky130_fd_sc_hd__fill_2
XFILLER_19_172 PHY_39/VGND PHY_40/VPWR sky130_fd_sc_hd__fill_2
XFILLER_13_3 PHY_27/VGND PHY_26/VPWR sky130_fd_sc_hd__decap_6
XFILLER_15_98 PHY_31/VGND PHY_33/VPWR sky130_fd_sc_hd__decap_12
XFILLER_15_54 PHY_31/VGND PHY_33/VPWR sky130_fd_sc_hd__fill_2
XPHY_170 _26_/VGND PHY_66/VPWR sky130_fd_sc_hd__tapvpwrvgnd_1
XFILLER_31_123 _11_/VGND _26_/VPWR sky130_fd_sc_hd__decap_12
XFILLER_31_86 _11_/VGND _26_/VPWR sky130_fd_sc_hd__fill_2
XFILLER_16_131 PHY_35/VGND PHY_33/VPWR sky130_fd_sc_hd__decap_12
XFILLER_13_123 PHY_27/VGND PHY_26/VPWR sky130_fd_sc_hd__fill_2
XFILLER_8_182 PHY_19/VGND PHY_17/VPWR sky130_fd_sc_hd__decap_12
XFILLER_5_196 PHY_8/VGND PHY_13/VPWR sky130_fd_sc_hd__fill_2
XFILLER_23_43 PHY_47/VGND PHY_49/VPWR sky130_fd_sc_hd__decap_12
XFILLER_23_98 PHY_47/VGND PHY_49/VPWR sky130_fd_sc_hd__decap_12
XANTENNA_mem_right_ipin_0.sc_dff_compact_4_.sky130_fd_sc_hd__dfrbp_1_RESET_B pReset
+ PHY_47/VGND PHY_49/VPWR sky130_fd_sc_hd__diode_2
XFILLER_2_177 _06_/VGND _05_/VPWR sky130_fd_sc_hd__decap_12
XFILLER_9_12 PHY_19/VGND PHY_21/VPWR sky130_fd_sc_hd__fill_2
XANTENNA_mem_right_ipin_2.sc_dff_compact_5_.sky130_fd_sc_hd__dfrbp_1_RESET_B pReset
+ PHY_47/VGND PHY_49/VPWR sky130_fd_sc_hd__diode_2
XFILLER_18_32 PHY_39/VGND PHY_37/VPWR sky130_fd_sc_hd__fill_2
XFILLER_29_107 _13_/VGND _10_/VPWR sky130_fd_sc_hd__decap_12
XFILLER_29_42 _13_/VGND _10_/VPWR sky130_fd_sc_hd__decap_3
XFILLER_19_184 PHY_39/VGND PHY_40/VPWR sky130_fd_sc_hd__decap_12
XFILLER_6_57 PHY_93/VGND PHY_13/VPWR sky130_fd_sc_hd__decap_6
XFILLER_25_110 PHY_51/VGND _22_/VPWR sky130_fd_sc_hd__decap_12
XPHY_171 _26_/VGND PHY_66/VPWR sky130_fd_sc_hd__tapvpwrvgnd_1
XFILLER_31_179 _11_/VGND _26_/VPWR sky130_fd_sc_hd__decap_4
XFILLER_31_135 _11_/VGND _26_/VPWR sky130_fd_sc_hd__decap_12
XFILLER_31_102 _11_/VGND _26_/VPWR sky130_fd_sc_hd__decap_12
XPHY_160 _13_/VGND _10_/VPWR sky130_fd_sc_hd__tapvpwrvgnd_1
XFILLER_16_154 PHY_35/VGND PHY_33/VPWR sky130_fd_sc_hd__decap_4
XFILLER_16_143 PHY_35/VGND PHY_33/VPWR sky130_fd_sc_hd__decap_8
XFILLER_22_179 PHY_47/VGND PHY_45/VPWR sky130_fd_sc_hd__decap_12
XFILLER_22_135 PHY_47/VGND PHY_45/VPWR sky130_fd_sc_hd__fill_2
XFILLER_26_32 _22_/VGND _22_/VPWR sky130_fd_sc_hd__decap_12
XFILLER_13_146 PHY_27/VGND PHY_26/VPWR sky130_fd_sc_hd__fill_2
XFILLER_9_106 PHY_19/VGND PHY_21/VPWR sky130_fd_sc_hd__fill_2
XFILLER_9_128 PHY_19/VGND PHY_21/VPWR sky130_fd_sc_hd__fill_2
XANTENNA_mem_right_ipin_0.sc_dff_compact_4_.sky130_fd_sc_hd__dfrbp_1_CLK clkbuf_2_1_0_prog_clk/X
+ PHY_51/VGND PHY_49/VPWR sky130_fd_sc_hd__diode_2
XFILLER_8_194 PHY_19/VGND PHY_17/VPWR sky130_fd_sc_hd__decap_4
XANTENNA_mem_right_ipin_1.sc_dff_compact_5_.sky130_fd_sc_hd__dfrbp_1_CLK clkbuf_2_1_0_prog_clk/X
+ PHY_39/VGND PHY_37/VPWR sky130_fd_sc_hd__diode_2
XFILLER_12_56 PHY_27/VGND PHY_25/VPWR sky130_fd_sc_hd__fill_1
XFILLER_10_127 PHY_23/VGND PHY_21/VPWR sky130_fd_sc_hd__fill_2
XFILLER_6_109 PHY_93/VGND PHY_13/VPWR sky130_fd_sc_hd__fill_1
Xmem_right_ipin_6.sc_dff_compact_1_.sky130_fd_sc_hd__dfrbp_1 mem_right_ipin_6.sc_dff_compact_1_.sky130_fd_sc_hd__dfrbp_1/D
+ mem_right_ipin_6.sc_dff_compact_1_.sky130_fd_sc_hd__dfrbp_1/Q mem_right_ipin_6.sc_dff_compact_1_.sky130_fd_sc_hd__dfrbp_1/Q_N
+ pReset clkbuf_2_2_0_prog_clk/X PHY_27/VGND PHY_25/VPWR sky130_fd_sc_hd__dfrbp_1
XFILLER_5_120 PHY_8/VGND PHY_13/VPWR sky130_fd_sc_hd__fill_2
XFILLER_5_175 PHY_8/VGND PHY_13/VPWR sky130_fd_sc_hd__fill_2
XFILLER_23_55 PHY_47/VGND PHY_49/VPWR sky130_fd_sc_hd__decap_6
XFILLER_2_134 _06_/VGND _05_/VPWR sky130_fd_sc_hd__decap_8
XFILLER_0_15 _01_/VGND PHY_0/VPWR sky130_fd_sc_hd__fill_2
XFILLER_2_145 _06_/VGND _05_/VPWR sky130_fd_sc_hd__decap_8
XFILLER_2_189 _06_/VGND _05_/VPWR sky130_fd_sc_hd__decap_8
XFILLER_3_3 _06_/VGND _02_/VPWR sky130_fd_sc_hd__decap_6
Xmem_left_ipin_0.sc_dff_compact_2_.sky130_fd_sc_hd__dfrbp_1 mem_left_ipin_0.sc_dff_compact_2_.sky130_fd_sc_hd__dfrbp_1/D
+ mem_left_ipin_0.sc_dff_compact_3_.sky130_fd_sc_hd__dfrbp_1/D mem_left_ipin_0.sc_dff_compact_2_.sky130_fd_sc_hd__dfrbp_1/Q_N
+ pReset clkbuf_2_0_0_prog_clk/X PHY_8/VGND PHY_13/VPWR sky130_fd_sc_hd__dfrbp_1
Xmem_right_ipin_3.sc_dff_compact_2_.sky130_fd_sc_hd__dfrbp_1 mem_right_ipin_3.sc_dff_compact_1_.sky130_fd_sc_hd__dfrbp_1/Q
+ mem_right_ipin_3.sc_dff_compact_2_.sky130_fd_sc_hd__dfrbp_1/Q mem_right_ipin_3.sc_dff_compact_2_.sky130_fd_sc_hd__dfrbp_1/Q_N
+ pReset clkbuf_2_3_0_prog_clk/X PHY_43/VGND PHY_40/VPWR sky130_fd_sc_hd__dfrbp_1
XFILLER_18_88 PHY_39/VGND PHY_37/VPWR sky130_fd_sc_hd__decap_4
Xmem_right_ipin_0.sc_dff_compact_3_.sky130_fd_sc_hd__dfrbp_1 mem_right_ipin_0.sc_dff_compact_2_.sky130_fd_sc_hd__dfrbp_1/Q
+ mem_right_ipin_0.sc_dff_compact_4_.sky130_fd_sc_hd__dfrbp_1/D mem_right_ipin_0.sc_dff_compact_3_.sky130_fd_sc_hd__dfrbp_1/Q_N
+ pReset clkbuf_2_1_0_prog_clk/X PHY_35/VGND PHY_37/VPWR sky130_fd_sc_hd__dfrbp_1
XFILLER_29_119 _13_/VGND _10_/VPWR sky130_fd_sc_hd__decap_3
XANTENNA_clkbuf_1_0_0_prog_clk_A clkbuf_0_prog_clk/X PHY_27/VGND PHY_25/VPWR sky130_fd_sc_hd__diode_2
XFILLER_28_174 _13_/VGND _09_/VPWR sky130_fd_sc_hd__decap_3
XFILLER_28_141 _13_/VGND _09_/VPWR sky130_fd_sc_hd__decap_12
XFILLER_19_196 PHY_39/VGND PHY_40/VPWR sky130_fd_sc_hd__fill_2
XFILLER_31_22 _11_/VGND _26_/VPWR sky130_fd_sc_hd__fill_2
XPHY_172 _26_/VGND PHY_66/VPWR sky130_fd_sc_hd__tapvpwrvgnd_1
XFILLER_31_147 _11_/VGND _26_/VPWR sky130_fd_sc_hd__decap_12
XFILLER_31_114 _11_/VGND _26_/VPWR sky130_fd_sc_hd__decap_8
XPHY_161 _11_/VGND _10_/VPWR sky130_fd_sc_hd__tapvpwrvgnd_1
XPHY_150 _22_/VGND _22_/VPWR sky130_fd_sc_hd__tapvpwrvgnd_1
Xclkbuf_2_1_0_prog_clk clkbuf_2_1_0_prog_clk/A clkbuf_2_1_0_prog_clk/X PHY_31/VGND
+ PHY_33/VPWR sky130_fd_sc_hd__clkbuf_1
XFILLER_26_44 _22_/VGND _22_/VPWR sky130_fd_sc_hd__decap_12
XFILLER_13_114 PHY_27/VGND PHY_26/VPWR sky130_fd_sc_hd__fill_2
XFILLER_12_180 PHY_27/VGND PHY_25/VPWR sky130_fd_sc_hd__decap_12
XFILLER_3_15 _06_/VGND _02_/VPWR sky130_fd_sc_hd__fill_2
XFILLER_3_59 _06_/VGND _02_/VPWR sky130_fd_sc_hd__fill_2
XFILLER_5_143 PHY_8/VGND PHY_13/VPWR sky130_fd_sc_hd__fill_1
XANTENNA_mem_right_ipin_1.sc_dff_compact_5_.sky130_fd_sc_hd__dfrbp_1_RESET_B pReset
+ PHY_39/VGND PHY_40/VPWR sky130_fd_sc_hd__diode_2
XANTENNA__12__A chany_in_11_ _13_/VGND _10_/VPWR sky130_fd_sc_hd__diode_2
XFILLER_29_3 _13_/VGND _10_/VPWR sky130_fd_sc_hd__decap_12
XFILLER_18_56 PHY_39/VGND PHY_37/VPWR sky130_fd_sc_hd__fill_1
XFILLER_18_23 PHY_39/VGND PHY_37/VPWR sky130_fd_sc_hd__decap_3
XANTENNA_mem_right_ipin_4.sc_dff_compact_0_.sky130_fd_sc_hd__dfrbp_1_CLK clkbuf_2_3_0_prog_clk/X
+ PHY_23/VGND PHY_25/VPWR sky130_fd_sc_hd__diode_2
XANTENNA_mem_right_ipin_5.sc_dff_compact_1_.sky130_fd_sc_hd__dfrbp_1_CLK clkbuf_2_2_0_prog_clk/X
+ PHY_8/VGND _02_/VPWR sky130_fd_sc_hd__diode_2
XANTENNA_mem_right_ipin_6.sc_dff_compact_2_.sky130_fd_sc_hd__dfrbp_1_CLK clkbuf_2_2_0_prog_clk/X
+ PHY_19/VGND PHY_21/VPWR sky130_fd_sc_hd__diode_2
XFILLER_29_66 _13_/VGND _10_/VPWR sky130_fd_sc_hd__decap_12
XFILLER_6_15 PHY_93/VGND PHY_13/VPWR sky130_fd_sc_hd__decap_4
XANTENNA_mem_right_ipin_7.sc_dff_compact_3_.sky130_fd_sc_hd__dfrbp_1_CLK clkbuf_2_0_0_prog_clk/X
+ PHY_93/VGND PHY_13/VPWR sky130_fd_sc_hd__diode_2
XFILLER_25_123 PHY_51/VGND _22_/VPWR sky130_fd_sc_hd__decap_12
XFILLER_15_46 PHY_31/VGND PHY_33/VPWR sky130_fd_sc_hd__decap_4
XANTENNA__20__A chany_in_2_ _01_/VGND _05_/VPWR sky130_fd_sc_hd__diode_2
XPHY_173 _26_/VGND PHY_66/VPWR sky130_fd_sc_hd__tapvpwrvgnd_1
XFILLER_31_159 _11_/VGND _26_/VPWR sky130_fd_sc_hd__decap_12
XPHY_162 _11_/VGND _10_/VPWR sky130_fd_sc_hd__tapvpwrvgnd_1
XPHY_151 _22_/VGND _22_/VPWR sky130_fd_sc_hd__tapvpwrvgnd_1
XPHY_140 PHY_47/VGND PHY_49/VPWR sky130_fd_sc_hd__tapvpwrvgnd_1
XFILLER_16_123 PHY_35/VGND PHY_33/VPWR sky130_fd_sc_hd__fill_1
XFILLER_11_3 PHY_23/VGND PHY_25/VPWR sky130_fd_sc_hd__decap_6
XFILLER_30_181 _11_/VGND _10_/VPWR sky130_fd_sc_hd__decap_12
XFILLER_26_56 _22_/VGND _22_/VPWR sky130_fd_sc_hd__decap_12
XANTENNA_mem_left_ipin_0.sc_dff_compact_3_.sky130_fd_sc_hd__dfrbp_1_CLK clkbuf_2_0_0_prog_clk/X
+ PHY_93/VGND PHY_17/VPWR sky130_fd_sc_hd__diode_2
XANTENNA__15__A chany_in_14_ _13_/VGND _10_/VPWR sky130_fd_sc_hd__diode_2
XFILLER_12_192 PHY_27/VGND PHY_25/VPWR sky130_fd_sc_hd__decap_6
XFILLER_12_36 PHY_27/VGND PHY_25/VPWR sky130_fd_sc_hd__fill_2
Xmem_right_ipin_7.sc_dff_compact_5_.sky130_fd_sc_hd__dfrbp_1 mem_right_ipin_7.sc_dff_compact_4_.sky130_fd_sc_hd__dfrbp_1/Q
+ ccff_tail mem_right_ipin_7.sc_dff_compact_5_.sky130_fd_sc_hd__dfrbp_1/Q_N pReset
+ clkbuf_2_0_0_prog_clk/X _06_/VGND _02_/VPWR sky130_fd_sc_hd__dfrbp_1
XFILLER_2_158 _06_/VGND _05_/VPWR sky130_fd_sc_hd__decap_12
XFILLER_9_59 PHY_19/VGND PHY_21/VPWR sky130_fd_sc_hd__fill_2
Xmem_right_ipin_5.sc_dff_compact_0_.sky130_fd_sc_hd__dfrbp_1 mem_right_ipin_4.sc_dff_compact_5_.sky130_fd_sc_hd__dfrbp_1/Q
+ mem_right_ipin_5.sc_dff_compact_1_.sky130_fd_sc_hd__dfrbp_1/D mem_right_ipin_5.sc_dff_compact_0_.sky130_fd_sc_hd__dfrbp_1/Q_N
+ pReset clkbuf_2_2_0_prog_clk/X PHY_8/VGND _02_/VPWR sky130_fd_sc_hd__dfrbp_1
XANTENNA__23__A chany_in_5_ _11_/VGND _26_/VPWR sky130_fd_sc_hd__diode_2
Xmem_right_ipin_2.sc_dff_compact_1_.sky130_fd_sc_hd__dfrbp_1 mem_right_ipin_2.sc_dff_compact_0_.sky130_fd_sc_hd__dfrbp_1/Q
+ mem_right_ipin_2.sc_dff_compact_2_.sky130_fd_sc_hd__dfrbp_1/D mem_right_ipin_2.sc_dff_compact_1_.sky130_fd_sc_hd__dfrbp_1/Q_N
+ pReset clkbuf_2_3_0_prog_clk/X PHY_39/VGND PHY_37/VPWR sky130_fd_sc_hd__dfrbp_1
XFILLER_1_60 _01_/VGND _05_/VPWR sky130_fd_sc_hd__fill_1
XANTENNA__18__A chany_in_17_ _13_/VGND _10_/VPWR sky130_fd_sc_hd__diode_2
XFILLER_29_78 _13_/VGND _10_/VPWR sky130_fd_sc_hd__decap_12
XFILLER_28_154 _13_/VGND _09_/VPWR sky130_fd_sc_hd__decap_12
XFILLER_20_58 PHY_43/VGND PHY_40/VPWR sky130_fd_sc_hd__decap_3
XFILLER_20_36 PHY_43/VGND PHY_40/VPWR sky130_fd_sc_hd__decap_12
XFILLER_19_176 PHY_39/VGND PHY_40/VPWR sky130_fd_sc_hd__fill_2
XFILLER_19_143 PHY_39/VGND PHY_40/VPWR sky130_fd_sc_hd__fill_2
XFILLER_10_91 PHY_23/VGND PHY_21/VPWR sky130_fd_sc_hd__fill_1
XFILLER_31_68 _11_/VGND _26_/VPWR sky130_fd_sc_hd__fill_2
XFILLER_25_179 PHY_51/VGND _22_/VPWR sky130_fd_sc_hd__decap_4
XFILLER_25_135 PHY_51/VGND _22_/VPWR sky130_fd_sc_hd__decap_12
XFILLER_15_58 PHY_31/VGND PHY_33/VPWR sky130_fd_sc_hd__decap_3
XANTENNA_mem_right_ipin_0.sc_dff_compact_1_.sky130_fd_sc_hd__dfrbp_1_D mem_right_ipin_0.sc_dff_compact_0_.sky130_fd_sc_hd__dfrbp_1/Q
+ PHY_27/VGND PHY_26/VPWR sky130_fd_sc_hd__diode_2
XANTENNA_mem_left_ipin_0.sc_dff_compact_1_.sky130_fd_sc_hd__dfrbp_1_D mem_left_ipin_0.sc_dff_compact_0_.sky130_fd_sc_hd__dfrbp_1/Q
+ _01_/VGND PHY_0/VPWR sky130_fd_sc_hd__diode_2
XPHY_174 _26_/VGND PHY_66/VPWR sky130_fd_sc_hd__tapvpwrvgnd_1
XPHY_163 _11_/VGND _10_/VPWR sky130_fd_sc_hd__tapvpwrvgnd_1
XPHY_152 _22_/VGND _09_/VPWR sky130_fd_sc_hd__tapvpwrvgnd_1
XFILLER_24_190 PHY_51/VGND PHY_49/VPWR sky130_fd_sc_hd__decap_8
XPHY_141 PHY_47/VGND PHY_49/VPWR sky130_fd_sc_hd__tapvpwrvgnd_1
XPHY_130 PHY_39/VGND PHY_40/VPWR sky130_fd_sc_hd__tapvpwrvgnd_1
XFILLER_30_193 _11_/VGND _10_/VPWR sky130_fd_sc_hd__decap_4
XFILLER_30_160 _11_/VGND _10_/VPWR sky130_fd_sc_hd__decap_12
XFILLER_22_105 PHY_47/VGND PHY_45/VPWR sky130_fd_sc_hd__decap_3
XFILLER_26_68 _22_/VGND _22_/VPWR sky130_fd_sc_hd__decap_12
XFILLER_21_182 PHY_43/VGND PHY_45/VPWR sky130_fd_sc_hd__fill_1
XFILLER_21_160 PHY_43/VGND PHY_45/VPWR sky130_fd_sc_hd__fill_2
XANTENNA_mem_right_ipin_0.sc_dff_compact_5_.sky130_fd_sc_hd__dfrbp_1_RESET_B pReset
+ PHY_35/VGND PHY_37/VPWR sky130_fd_sc_hd__diode_2
XFILLER_13_127 PHY_27/VGND PHY_26/VPWR sky130_fd_sc_hd__decap_12
XANTENNA__26__A chany_in_8_ _11_/VGND _26_/VPWR sky130_fd_sc_hd__diode_2
XFILLER_12_59 PHY_27/VGND PHY_25/VPWR sky130_fd_sc_hd__fill_2
XFILLER_12_15 PHY_27/VGND PHY_25/VPWR sky130_fd_sc_hd__decap_3
XFILLER_5_112 PHY_8/VGND PHY_13/VPWR sky130_fd_sc_hd__fill_2
XFILLER_5_123 PHY_8/VGND PHY_13/VPWR sky130_fd_sc_hd__fill_2
XFILLER_4_93 PHY_8/VGND _02_/VPWR sky130_fd_sc_hd__decap_12
XFILLER_9_16 PHY_19/VGND PHY_21/VPWR sky130_fd_sc_hd__fill_2
XFILLER_9_49 PHY_19/VGND PHY_21/VPWR sky130_fd_sc_hd__fill_1
XANTENNA_mem_left_ipin_0.sc_dff_compact_4_.sky130_fd_sc_hd__dfrbp_1_D mem_left_ipin_0.sc_dff_compact_3_.sky130_fd_sc_hd__dfrbp_1/Q
+ PHY_8/VGND _02_/VPWR sky130_fd_sc_hd__diode_2
XANTENNA_mem_right_ipin_0.sc_dff_compact_4_.sky130_fd_sc_hd__dfrbp_1_D mem_right_ipin_0.sc_dff_compact_4_.sky130_fd_sc_hd__dfrbp_1/D
+ PHY_47/VGND PHY_45/VPWR sky130_fd_sc_hd__diode_2
XFILLER_18_36 PHY_39/VGND PHY_37/VPWR sky130_fd_sc_hd__decap_12
XFILLER_1_3 _01_/VGND _05_/VPWR sky130_fd_sc_hd__decap_8
X_27_ chany_in_9_ chany_out_9_ _13_/VGND _10_/VPWR sky130_fd_sc_hd__buf_2
XFILLER_28_166 _13_/VGND _09_/VPWR sky130_fd_sc_hd__decap_8
XFILLER_20_48 PHY_43/VGND PHY_40/VPWR sky130_fd_sc_hd__decap_8
XFILLER_20_15 PHY_43/VGND PHY_40/VPWR sky130_fd_sc_hd__decap_12
XFILLER_33_180 _26_/VGND PHY_66/VPWR sky130_fd_sc_hd__decap_6
XFILLER_25_147 PHY_51/VGND _22_/VPWR sky130_fd_sc_hd__decap_12
XPHY_175 _26_/VGND PHY_66/VPWR sky130_fd_sc_hd__tapvpwrvgnd_1
XPHY_164 _11_/VGND _26_/VPWR sky130_fd_sc_hd__tapvpwrvgnd_1
XPHY_153 _22_/VGND _09_/VPWR sky130_fd_sc_hd__tapvpwrvgnd_1
XPHY_142 PHY_47/VGND PHY_49/VPWR sky130_fd_sc_hd__tapvpwrvgnd_1
XPHY_131 PHY_43/VGND PHY_40/VPWR sky130_fd_sc_hd__tapvpwrvgnd_1
XFILLER_16_158 PHY_35/VGND PHY_33/VPWR sky130_fd_sc_hd__fill_1
XPHY_120 PHY_35/VGND PHY_33/VPWR sky130_fd_sc_hd__tapvpwrvgnd_1
XFILLER_30_172 _11_/VGND _10_/VPWR sky130_fd_sc_hd__decap_4
XFILLER_22_139 PHY_47/VGND PHY_45/VPWR sky130_fd_sc_hd__decap_12
XPHY_0 _01_/VGND PHY_0/VPWR sky130_fd_sc_hd__decap_3
XFILLER_13_139 PHY_27/VGND PHY_26/VPWR sky130_fd_sc_hd__decap_4
XANTENNA_mem_right_ipin_1.sc_dff_compact_2_.sky130_fd_sc_hd__dfrbp_1_D mem_right_ipin_1.sc_dff_compact_2_.sky130_fd_sc_hd__dfrbp_1/D
+ PHY_43/VGND PHY_45/VPWR sky130_fd_sc_hd__diode_2
XFILLER_8_154 PHY_19/VGND PHY_17/VPWR sky130_fd_sc_hd__decap_4
XFILLER_5_146 PHY_8/VGND PHY_13/VPWR sky130_fd_sc_hd__fill_2
XFILLER_5_179 PHY_8/VGND PHY_13/VPWR sky130_fd_sc_hd__decap_4
Xclkbuf_2_0_0_prog_clk clkbuf_2_1_0_prog_clk/A clkbuf_2_0_0_prog_clk/X PHY_19/VGND
+ PHY_21/VPWR sky130_fd_sc_hd__clkbuf_1
XFILLER_23_15 PHY_47/VGND PHY_49/VPWR sky130_fd_sc_hd__fill_1
XFILLER_13_92 PHY_27/VGND PHY_26/VPWR sky130_fd_sc_hd__fill_2
Xmem_right_ipin_6.sc_dff_compact_4_.sky130_fd_sc_hd__dfrbp_1 mem_right_ipin_6.sc_dff_compact_4_.sky130_fd_sc_hd__dfrbp_1/D
+ mem_right_ipin_6.sc_dff_compact_4_.sky130_fd_sc_hd__dfrbp_1/Q mem_right_ipin_6.sc_dff_compact_4_.sky130_fd_sc_hd__dfrbp_1/Q_N
+ pReset clkbuf_2_1_0_prog_clk/X PHY_27/VGND PHY_26/VPWR sky130_fd_sc_hd__dfrbp_1
XFILLER_2_105 _06_/VGND _05_/VPWR sky130_fd_sc_hd__decap_6
XFILLER_0_19 _01_/VGND PHY_0/VPWR sky130_fd_sc_hd__fill_2
XFILLER_1_182 _01_/VGND _05_/VPWR sky130_fd_sc_hd__fill_1
Xmem_left_ipin_0.sc_dff_compact_5_.sky130_fd_sc_hd__dfrbp_1 mem_left_ipin_0.sc_dff_compact_5_.sky130_fd_sc_hd__dfrbp_1/D
+ mem_left_ipin_0.sc_dff_compact_5_.sky130_fd_sc_hd__dfrbp_1/Q mem_left_ipin_0.sc_dff_compact_5_.sky130_fd_sc_hd__dfrbp_1/Q_N
+ pReset clkbuf_2_0_0_prog_clk/X PHY_19/VGND PHY_21/VPWR sky130_fd_sc_hd__dfrbp_1
XFILLER_18_59 PHY_39/VGND PHY_37/VPWR sky130_fd_sc_hd__fill_2
XFILLER_18_48 PHY_39/VGND PHY_37/VPWR sky130_fd_sc_hd__decap_8
XFILLER_18_15 PHY_39/VGND PHY_37/VPWR sky130_fd_sc_hd__decap_8
Xmem_right_ipin_3.sc_dff_compact_5_.sky130_fd_sc_hd__dfrbp_1 mem_right_ipin_3.sc_dff_compact_4_.sky130_fd_sc_hd__dfrbp_1/Q
+ mem_right_ipin_3.sc_dff_compact_5_.sky130_fd_sc_hd__dfrbp_1/Q mem_right_ipin_3.sc_dff_compact_5_.sky130_fd_sc_hd__dfrbp_1/Q_N
+ pReset clkbuf_2_3_0_prog_clk/X PHY_31/VGND PHY_26/VPWR sky130_fd_sc_hd__dfrbp_1
XFILLER_27_3 _22_/VGND _09_/VPWR sky130_fd_sc_hd__decap_12
XFILLER_24_80 PHY_51/VGND PHY_49/VPWR sky130_fd_sc_hd__decap_12
XANTENNA_mem_right_ipin_2.sc_dff_compact_0_.sky130_fd_sc_hd__dfrbp_1_D mem_right_ipin_1.sc_dff_compact_5_.sky130_fd_sc_hd__dfrbp_1/Q
+ PHY_43/VGND PHY_45/VPWR sky130_fd_sc_hd__diode_2
X_26_ chany_in_8_ chany_out_8_ _26_/VGND _26_/VPWR sky130_fd_sc_hd__buf_2
XFILLER_29_47 _13_/VGND _10_/VPWR sky130_fd_sc_hd__decap_12
XFILLER_20_27 PHY_43/VGND PHY_40/VPWR sky130_fd_sc_hd__decap_4
XFILLER_1_62 _01_/VGND _05_/VPWR sky130_fd_sc_hd__decap_12
XFILLER_1_40 _01_/VGND _05_/VPWR sky130_fd_sc_hd__decap_12
XFILLER_19_123 PHY_39/VGND PHY_40/VPWR sky130_fd_sc_hd__fill_2
XFILLER_13_9 PHY_27/VGND PHY_26/VPWR sky130_fd_sc_hd__fill_1
XFILLER_10_93 PHY_23/VGND PHY_21/VPWR sky130_fd_sc_hd__decap_8
XFILLER_10_71 PHY_23/VGND PHY_21/VPWR sky130_fd_sc_hd__decap_12
XFILLER_6_29 PHY_93/VGND PHY_13/VPWR sky130_fd_sc_hd__fill_2
X_09_ _09_/HI right_grid_pin_3_ _13_/VGND _09_/VPWR sky130_fd_sc_hd__conb_1
XFILLER_25_159 PHY_51/VGND _22_/VPWR sky130_fd_sc_hd__decap_12
XANTENNA_mem_right_ipin_1.sc_dff_compact_5_.sky130_fd_sc_hd__dfrbp_1_D mem_right_ipin_1.sc_dff_compact_4_.sky130_fd_sc_hd__dfrbp_1/Q
+ PHY_39/VGND PHY_40/VPWR sky130_fd_sc_hd__diode_2
XANTENNA_mem_right_ipin_1.sc_dff_compact_4_.sky130_fd_sc_hd__dfrbp_1_CLK clkbuf_2_1_0_prog_clk/X
+ PHY_39/VGND PHY_40/VPWR sky130_fd_sc_hd__diode_2
XANTENNA_mem_right_ipin_0.sc_dff_compact_3_.sky130_fd_sc_hd__dfrbp_1_CLK clkbuf_2_1_0_prog_clk/X
+ PHY_35/VGND PHY_33/VPWR sky130_fd_sc_hd__diode_2
XPHY_165 _11_/VGND _26_/VPWR sky130_fd_sc_hd__tapvpwrvgnd_1
XFILLER_31_48 _11_/VGND _26_/VPWR sky130_fd_sc_hd__fill_2
XFILLER_31_26 _11_/VGND _26_/VPWR sky130_fd_sc_hd__decap_12
XFILLER_31_15 _11_/VGND _26_/VPWR sky130_fd_sc_hd__decap_3
XPHY_154 _22_/VGND _09_/VPWR sky130_fd_sc_hd__tapvpwrvgnd_1
XPHY_143 PHY_51/VGND PHY_49/VPWR sky130_fd_sc_hd__tapvpwrvgnd_1
XANTENNA_mem_right_ipin_2.sc_dff_compact_5_.sky130_fd_sc_hd__dfrbp_1_CLK clkbuf_2_3_0_prog_clk/X
+ PHY_47/VGND PHY_45/VPWR sky130_fd_sc_hd__diode_2
XPHY_132 PHY_43/VGND PHY_40/VPWR sky130_fd_sc_hd__tapvpwrvgnd_1
Xmem_right_ipin_1.sc_dff_compact_0_.sky130_fd_sc_hd__dfrbp_1 mem_right_ipin_0.sc_dff_compact_5_.sky130_fd_sc_hd__dfrbp_1/Q
+ mem_right_ipin_1.sc_dff_compact_1_.sky130_fd_sc_hd__dfrbp_1/D mem_right_ipin_1.sc_dff_compact_0_.sky130_fd_sc_hd__dfrbp_1/Q_N
+ pReset clkbuf_2_1_0_prog_clk/X PHY_39/VGND PHY_40/VPWR sky130_fd_sc_hd__dfrbp_1
XPHY_121 PHY_35/VGND PHY_33/VPWR sky130_fd_sc_hd__tapvpwrvgnd_1
XPHY_110 PHY_27/VGND PHY_26/VPWR sky130_fd_sc_hd__tapvpwrvgnd_1
XFILLER_30_151 _11_/VGND _10_/VPWR sky130_fd_sc_hd__fill_2
XFILLER_15_170 PHY_31/VGND PHY_33/VPWR sky130_fd_sc_hd__decap_12
XPHY_1 _01_/VGND PHY_0/VPWR sky130_fd_sc_hd__decap_3
XFILLER_7_50 PHY_93/VGND PHY_17/VPWR sky130_fd_sc_hd__decap_3
XFILLER_26_15 _22_/VGND _22_/VPWR sky130_fd_sc_hd__decap_12
XFILLER_21_184 PHY_43/VGND PHY_45/VPWR sky130_fd_sc_hd__decap_12
XFILLER_32_80 _26_/VGND _26_/VPWR sky130_fd_sc_hd__decap_12
XFILLER_12_151 PHY_27/VGND PHY_25/VPWR sky130_fd_sc_hd__fill_2
XFILLER_8_111 PHY_19/VGND PHY_17/VPWR sky130_fd_sc_hd__fill_1
XFILLER_12_28 PHY_27/VGND PHY_25/VPWR sky130_fd_sc_hd__decap_3
XANTENNA_mem_right_ipin_2.sc_dff_compact_3_.sky130_fd_sc_hd__dfrbp_1_D mem_right_ipin_2.sc_dff_compact_2_.sky130_fd_sc_hd__dfrbp_1/Q
+ PHY_39/VGND PHY_40/VPWR sky130_fd_sc_hd__diode_2
XFILLER_4_40 PHY_8/VGND _02_/VPWR sky130_fd_sc_hd__decap_12
XFILLER_4_84 PHY_8/VGND _02_/VPWR sky130_fd_sc_hd__decap_8
XFILLER_4_191 PHY_8/VGND _02_/VPWR sky130_fd_sc_hd__decap_6
X_25_ chany_in_7_ chany_out_7_ _11_/VGND _10_/VPWR sky130_fd_sc_hd__buf_2
XFILLER_29_26 _13_/VGND _10_/VPWR sky130_fd_sc_hd__fill_2
XFILLER_29_15 _13_/VGND _10_/VPWR sky130_fd_sc_hd__fill_1
XFILLER_1_74 _01_/VGND _05_/VPWR sky130_fd_sc_hd__decap_12
XFILLER_1_52 _01_/VGND _05_/VPWR sky130_fd_sc_hd__decap_8
XFILLER_29_59 _13_/VGND _10_/VPWR sky130_fd_sc_hd__fill_2
XFILLER_10_83 PHY_23/VGND PHY_21/VPWR sky130_fd_sc_hd__decap_8
XANTENNA_mem_right_ipin_3.sc_dff_compact_1_.sky130_fd_sc_hd__dfrbp_1_D mem_right_ipin_3.sc_dff_compact_1_.sky130_fd_sc_hd__dfrbp_1/D
+ PHY_43/VGND PHY_45/VPWR sky130_fd_sc_hd__diode_2
XFILLER_19_168 PHY_39/VGND PHY_40/VPWR sky130_fd_sc_hd__fill_2
XFILLER_19_81 PHY_39/VGND PHY_40/VPWR sky130_fd_sc_hd__fill_2
XFILLER_19_70 PHY_39/VGND PHY_40/VPWR sky130_fd_sc_hd__decap_4
X_08_ _08_/HI left_grid_pin_0_ _06_/VGND _05_/VPWR sky130_fd_sc_hd__conb_1
XANTENNA_clkbuf_2_2_0_prog_clk_A clkbuf_2_3_0_prog_clk/A PHY_19/VGND PHY_21/VPWR sky130_fd_sc_hd__diode_2
XFILLER_31_38 _11_/VGND _26_/VPWR sky130_fd_sc_hd__decap_6
XFILLER_16_127 PHY_35/VGND PHY_33/VPWR sky130_fd_sc_hd__fill_2
XFILLER_16_105 PHY_35/VGND PHY_33/VPWR sky130_fd_sc_hd__decap_12
XFILLER_15_17 PHY_31/VGND PHY_33/VPWR sky130_fd_sc_hd__fill_2
XPHY_100 PHY_19/VGND PHY_21/VPWR sky130_fd_sc_hd__tapvpwrvgnd_1
XPHY_166 _11_/VGND _26_/VPWR sky130_fd_sc_hd__tapvpwrvgnd_1
XPHY_155 _13_/VGND _09_/VPWR sky130_fd_sc_hd__tapvpwrvgnd_1
XPHY_144 PHY_51/VGND PHY_49/VPWR sky130_fd_sc_hd__tapvpwrvgnd_1
XFILLER_21_82 PHY_43/VGND PHY_45/VPWR sky130_fd_sc_hd__fill_1
XPHY_133 PHY_43/VGND PHY_40/VPWR sky130_fd_sc_hd__tapvpwrvgnd_1
XPHY_122 PHY_35/VGND PHY_37/VPWR sky130_fd_sc_hd__tapvpwrvgnd_1
XFILLER_15_182 PHY_31/VGND PHY_33/VPWR sky130_fd_sc_hd__fill_1
XPHY_111 PHY_27/VGND PHY_26/VPWR sky130_fd_sc_hd__tapvpwrvgnd_1
XPHY_2 _01_/VGND _05_/VPWR sky130_fd_sc_hd__decap_3
XFILLER_26_27 _22_/VGND _22_/VPWR sky130_fd_sc_hd__decap_4
XFILLER_21_196 PHY_43/VGND PHY_45/VPWR sky130_fd_sc_hd__fill_2
XFILLER_13_119 PHY_27/VGND PHY_26/VPWR sky130_fd_sc_hd__decap_3
XFILLER_7_62 PHY_93/VGND PHY_17/VPWR sky130_fd_sc_hd__fill_2
XFILLER_16_93 PHY_35/VGND PHY_33/VPWR sky130_fd_sc_hd__decap_12
XANTENNA_mem_right_ipin_5.sc_dff_compact_0_.sky130_fd_sc_hd__dfrbp_1_CLK clkbuf_2_2_0_prog_clk/X
+ _06_/VGND _05_/VPWR sky130_fd_sc_hd__diode_2
XFILLER_4_52 PHY_8/VGND _02_/VPWR sky130_fd_sc_hd__decap_4
XANTENNA_mem_right_ipin_6.sc_dff_compact_1_.sky130_fd_sc_hd__dfrbp_1_CLK clkbuf_2_2_0_prog_clk/X
+ PHY_23/VGND PHY_25/VPWR sky130_fd_sc_hd__diode_2
XANTENNA_mem_right_ipin_7.sc_dff_compact_2_.sky130_fd_sc_hd__dfrbp_1_CLK clkbuf_2_0_0_prog_clk/X
+ PHY_93/VGND PHY_17/VPWR sky130_fd_sc_hd__diode_2
XFILLER_1_184 _01_/VGND _05_/VPWR sky130_fd_sc_hd__decap_12
XFILLER_1_140 _01_/VGND _05_/VPWR sky130_fd_sc_hd__decap_12
XFILLER_18_28 PHY_39/VGND PHY_37/VPWR sky130_fd_sc_hd__decap_3
XANTENNA_mem_right_ipin_3.sc_dff_compact_4_.sky130_fd_sc_hd__dfrbp_1_D mem_right_ipin_3.sc_dff_compact_3_.sky130_fd_sc_hd__dfrbp_1/Q
+ PHY_31/VGND PHY_33/VPWR sky130_fd_sc_hd__diode_2
XFILLER_24_93 PHY_51/VGND PHY_49/VPWR sky130_fd_sc_hd__decap_12
X_24_ chany_in_6_ chany_out_6_ _11_/VGND _26_/VPWR sky130_fd_sc_hd__buf_2
XFILLER_1_86 _01_/VGND _05_/VPWR sky130_fd_sc_hd__decap_12
Xmem_right_ipin_5.sc_dff_compact_3_.sky130_fd_sc_hd__dfrbp_1 mem_right_ipin_5.sc_dff_compact_2_.sky130_fd_sc_hd__dfrbp_1/Q
+ mem_right_ipin_5.sc_dff_compact_3_.sky130_fd_sc_hd__dfrbp_1/Q mem_right_ipin_5.sc_dff_compact_3_.sky130_fd_sc_hd__dfrbp_1/Q_N
+ pReset clkbuf_2_2_0_prog_clk/X PHY_8/VGND _02_/VPWR sky130_fd_sc_hd__dfrbp_1
XANTENNA_mem_left_ipin_0.sc_dff_compact_2_.sky130_fd_sc_hd__dfrbp_1_CLK clkbuf_2_0_0_prog_clk/X
+ PHY_8/VGND PHY_13/VPWR sky130_fd_sc_hd__diode_2
XFILLER_32_3 _26_/VGND _26_/VPWR sky130_fd_sc_hd__decap_12
Xmem_right_ipin_2.sc_dff_compact_4_.sky130_fd_sc_hd__dfrbp_1 mem_right_ipin_2.sc_dff_compact_4_.sky130_fd_sc_hd__dfrbp_1/D
+ mem_right_ipin_2.sc_dff_compact_4_.sky130_fd_sc_hd__dfrbp_1/Q mem_right_ipin_2.sc_dff_compact_4_.sky130_fd_sc_hd__dfrbp_1/Q_N
+ pReset clkbuf_2_3_0_prog_clk/X PHY_43/VGND PHY_45/VPWR sky130_fd_sc_hd__dfrbp_1
XFILLER_19_114 PHY_39/VGND PHY_40/VPWR sky130_fd_sc_hd__fill_2
X_07_ _07_/HI left_grid_pin_10_ _06_/VGND _05_/VPWR sky130_fd_sc_hd__conb_1
XPHY_167 _26_/VGND _26_/VPWR sky130_fd_sc_hd__tapvpwrvgnd_1
XPHY_156 _13_/VGND _09_/VPWR sky130_fd_sc_hd__tapvpwrvgnd_1
XPHY_145 PHY_51/VGND PHY_49/VPWR sky130_fd_sc_hd__tapvpwrvgnd_1
XPHY_134 PHY_43/VGND PHY_45/VPWR sky130_fd_sc_hd__tapvpwrvgnd_1
XPHY_123 PHY_35/VGND PHY_37/VPWR sky130_fd_sc_hd__tapvpwrvgnd_1
XFILLER_16_117 PHY_35/VGND PHY_33/VPWR sky130_fd_sc_hd__decap_6
XPHY_112 PHY_27/VGND PHY_26/VPWR sky130_fd_sc_hd__tapvpwrvgnd_1
XPHY_101 PHY_23/VGND PHY_21/VPWR sky130_fd_sc_hd__tapvpwrvgnd_1
XFILLER_30_197 _11_/VGND _10_/VPWR sky130_fd_sc_hd__fill_1
XPHY_3 _01_/VGND _05_/VPWR sky130_fd_sc_hd__decap_3
XFILLER_21_164 PHY_43/VGND PHY_45/VPWR sky130_fd_sc_hd__decap_12
XFILLER_21_120 PHY_43/VGND PHY_45/VPWR sky130_fd_sc_hd__fill_2
XFILLER_16_72 PHY_35/VGND PHY_33/VPWR sky130_fd_sc_hd__decap_12
XFILLER_16_61 PHY_35/VGND PHY_33/VPWR sky130_fd_sc_hd__fill_1
XANTENNA_mem_right_ipin_4.sc_dff_compact_2_.sky130_fd_sc_hd__dfrbp_1_D mem_right_ipin_4.sc_dff_compact_1_.sky130_fd_sc_hd__dfrbp_1/Q
+ PHY_19/VGND PHY_21/VPWR sky130_fd_sc_hd__diode_2
XFILLER_32_93 _26_/VGND _26_/VPWR sky130_fd_sc_hd__decap_12
XFILLER_8_135 PHY_19/VGND PHY_17/VPWR sky130_fd_sc_hd__decap_12
XFILLER_5_116 PHY_8/VGND PHY_13/VPWR sky130_fd_sc_hd__fill_2
XFILLER_5_127 PHY_8/VGND PHY_13/VPWR sky130_fd_sc_hd__decap_12
XFILLER_23_18 PHY_47/VGND PHY_49/VPWR sky130_fd_sc_hd__fill_2
XFILLER_13_62 PHY_27/VGND PHY_26/VPWR sky130_fd_sc_hd__fill_2
XFILLER_1_196 _01_/VGND _05_/VPWR sky130_fd_sc_hd__fill_2
XFILLER_1_152 _01_/VGND _05_/VPWR sky130_fd_sc_hd__decap_12
XANTENNA_mem_right_ipin_5.sc_dff_compact_0_.sky130_fd_sc_hd__dfrbp_1_D mem_right_ipin_4.sc_dff_compact_5_.sky130_fd_sc_hd__dfrbp_1/Q
+ _06_/VGND _02_/VPWR sky130_fd_sc_hd__diode_2
X_23_ chany_in_5_ chany_out_5_ _11_/VGND _26_/VPWR sky130_fd_sc_hd__buf_2
XFILLER_1_98 _01_/VGND _05_/VPWR sky130_fd_sc_hd__decap_8
XANTENNA_mem_right_ipin_4.sc_dff_compact_5_.sky130_fd_sc_hd__dfrbp_1_D mem_right_ipin_4.sc_dff_compact_4_.sky130_fd_sc_hd__dfrbp_1/Q
+ PHY_8/VGND _02_/VPWR sky130_fd_sc_hd__diode_2
XFILLER_10_63 PHY_23/VGND PHY_21/VPWR sky130_fd_sc_hd__fill_2
XFILLER_10_52 PHY_23/VGND PHY_21/VPWR sky130_fd_sc_hd__decap_4
XFILLER_33_195 _26_/VGND PHY_66/VPWR sky130_fd_sc_hd__decap_3
XFILLER_25_3 PHY_51/VGND _22_/VPWR sky130_fd_sc_hd__decap_12
X_06_ _06_/HI left_grid_pin_12_ _06_/VGND _02_/VPWR sky130_fd_sc_hd__conb_1
XPHY_168 _26_/VGND _26_/VPWR sky130_fd_sc_hd__tapvpwrvgnd_1