* NGSPICE file created from sb_1__1_.ext - technology: sky130A

* Black-box entry subcircuit for sky130_fd_sc_hd__decap_8 abstract view
.subckt sky130_fd_sc_hd__decap_8 VGND VPWR
.ends

* Black-box entry subcircuit for sky130_fd_sc_hd__ebufn_1 abstract view
.subckt sky130_fd_sc_hd__ebufn_1 A TE_B Z VGND VPWR
.ends

* Black-box entry subcircuit for sky130_fd_sc_hd__fill_2 abstract view
.subckt sky130_fd_sc_hd__fill_2 VGND VPWR
.ends

* Black-box entry subcircuit for sky130_fd_sc_hd__diode_2 abstract view
.subckt sky130_fd_sc_hd__diode_2 DIODE VGND VPWR
.ends

* Black-box entry subcircuit for sky130_fd_sc_hd__fill_1 abstract view
.subckt sky130_fd_sc_hd__fill_1 VGND VPWR
.ends

* Black-box entry subcircuit for sky130_fd_sc_hd__dfrbp_1 abstract view
.subckt sky130_fd_sc_hd__dfrbp_1 D Q Q_N RESET_B CLK VGND VPWR
.ends

* Black-box entry subcircuit for sky130_fd_sc_hd__decap_6 abstract view
.subckt sky130_fd_sc_hd__decap_6 VGND VPWR
.ends

* Black-box entry subcircuit for sky130_fd_sc_hd__buf_2 abstract view
.subckt sky130_fd_sc_hd__buf_2 A X VGND VPWR
.ends

* Black-box entry subcircuit for sky130_fd_sc_hd__clkbuf_1 abstract view
.subckt sky130_fd_sc_hd__clkbuf_1 A X VGND VPWR
.ends

* Black-box entry subcircuit for sky130_fd_sc_hd__decap_12 abstract view
.subckt sky130_fd_sc_hd__decap_12 VGND VPWR
.ends

* Black-box entry subcircuit for sky130_fd_sc_hd__tapvpwrvgnd_1 abstract view
.subckt sky130_fd_sc_hd__tapvpwrvgnd_1 VGND VPWR
.ends

* Black-box entry subcircuit for sky130_fd_sc_hd__inv_1 abstract view
.subckt sky130_fd_sc_hd__inv_1 A Y VGND VPWR
.ends

* Black-box entry subcircuit for sky130_fd_sc_hd__decap_4 abstract view
.subckt sky130_fd_sc_hd__decap_4 VGND VPWR
.ends

* Black-box entry subcircuit for sky130_fd_sc_hd__decap_3 abstract view
.subckt sky130_fd_sc_hd__decap_3 VGND VPWR
.ends

* Black-box entry subcircuit for sky130_fd_sc_hd__conb_1 abstract view
.subckt sky130_fd_sc_hd__conb_1 HI LO VGND VPWR
.ends

* Black-box entry subcircuit for sky130_fd_sc_hd__clkbuf_16 abstract view
.subckt sky130_fd_sc_hd__clkbuf_16 A X VGND VPWR
.ends

* Black-box entry subcircuit for sky130_fd_sc_hd__inv_8 abstract view
.subckt sky130_fd_sc_hd__inv_8 A Y VGND VPWR
.ends

.subckt sb_1__1_ bottom_left_grid_pin_13_ bottom_right_grid_pin_11_ ccff_head ccff_tail
+ chanx_left_in[0] chanx_left_in[1] chanx_left_in[2] chanx_left_in[3] chanx_left_in[4]
+ chanx_left_in[5] chanx_left_in[6] chanx_left_in[7] chanx_left_in[8] chanx_left_out[0]
+ chanx_left_out[1] chanx_left_out[2] chanx_left_out[3] chanx_left_out[4] chanx_left_out[5]
+ chanx_left_out[6] chanx_left_out[7] chanx_left_out[8] chanx_right_in[0] chanx_right_in[1]
+ chanx_right_in[2] chanx_right_in[3] chanx_right_in[4] chanx_right_in[5] chanx_right_in[6]
+ chanx_right_in[7] chanx_right_in[8] chanx_right_out[0] chanx_right_out[1] chanx_right_out[2]
+ chanx_right_out[3] chanx_right_out[4] chanx_right_out[5] chanx_right_out[6] chanx_right_out[7]
+ chanx_right_out[8] chany_bottom_in[0] chany_bottom_in[1] chany_bottom_in[2] chany_bottom_in[3]
+ chany_bottom_in[4] chany_bottom_in[5] chany_bottom_in[6] chany_bottom_in[7] chany_bottom_in[8]
+ chany_bottom_out[0] chany_bottom_out[1] chany_bottom_out[2] chany_bottom_out[3]
+ chany_bottom_out[4] chany_bottom_out[5] chany_bottom_out[6] chany_bottom_out[7]
+ chany_bottom_out[8] chany_top_in[0] chany_top_in[1] chany_top_in[2] chany_top_in[3]
+ chany_top_in[4] chany_top_in[5] chany_top_in[6] chany_top_in[7] chany_top_in[8]
+ chany_top_out[0] chany_top_out[1] chany_top_out[2] chany_top_out[3] chany_top_out[4]
+ chany_top_out[5] chany_top_out[6] chany_top_out[7] chany_top_out[8] left_bottom_grid_pin_12_
+ left_top_grid_pin_10_ pReset prog_clk right_bottom_grid_pin_12_ right_top_grid_pin_10_
+ top_left_grid_pin_13_ top_right_grid_pin_11_ VPWR VGND
XFILLER_36_19 VGND VPWR sky130_fd_sc_hd__decap_8
Xmux_right_track_0.mux_l1_in_1_.TGATE_0_.sky130_fd_sc_hd__ebufn_1 mux_right_track_0.INVTX1_4_.sky130_fd_sc_hd__inv_1/Y
+ mux_right_track_0.mux_l1_in_1_.TGATE_0_.sky130_fd_sc_hd__ebufn_1/TE_B mux_right_track_0.mux_l1_in_1_.TGATE_1_.sky130_fd_sc_hd__ebufn_1/Z
+ VGND VPWR sky130_fd_sc_hd__ebufn_1
XFILLER_22_144 VGND VPWR sky130_fd_sc_hd__fill_2
XFILLER_22_177 VGND VPWR sky130_fd_sc_hd__fill_2
XFILLER_7_7 VGND VPWR sky130_fd_sc_hd__fill_2
XFILLER_13_166 VGND VPWR sky130_fd_sc_hd__fill_2
XANTENNA_mux_right_track_8.mux_l2_in_0_.TGATE_1_.sky130_fd_sc_hd__ebufn_1_A mux_right_track_8.mux_l1_in_1_.TGATE_2_.sky130_fd_sc_hd__ebufn_1/Z
+ VGND VPWR sky130_fd_sc_hd__diode_2
XFILLER_3_89 VGND VPWR sky130_fd_sc_hd__fill_2
XFILLER_3_78 VGND VPWR sky130_fd_sc_hd__fill_2
XANTENNA_mux_top_track_0.INVTX1_5_.sky130_fd_sc_hd__inv_1_A chany_bottom_in[4] VGND
+ VPWR sky130_fd_sc_hd__diode_2
XFILLER_8_181 VGND VPWR sky130_fd_sc_hd__decap_8
XFILLER_6_129 VGND VPWR sky130_fd_sc_hd__decap_8
XFILLER_12_32 VGND VPWR sky130_fd_sc_hd__fill_2
XFILLER_37_40 VGND VPWR sky130_fd_sc_hd__fill_1
Xmem_bottom_track_1.sc_dff_compact_1_.sky130_fd_sc_hd__dfrbp_1 mem_bottom_track_1.sc_dff_compact_0_.sky130_fd_sc_hd__dfrbp_1/Q
+ mem_bottom_track_1.sc_dff_compact_2_.sky130_fd_sc_hd__dfrbp_1/D mem_bottom_track_1.sc_dff_compact_1_.sky130_fd_sc_hd__dfrbp_1/Q_N
+ _13_/Y clkbuf_3_1_0_prog_clk/X VGND VPWR sky130_fd_sc_hd__dfrbp_1
Xmux_right_track_16.mux_l1_in_2_.TGATE_2_.sky130_fd_sc_hd__ebufn_1 _23_/HI mux_right_track_16.mux_l1_in_2_.TGATE_2_.sky130_fd_sc_hd__ebufn_1/TE_B
+ mux_right_track_16.mux_l1_in_2_.TGATE_1_.sky130_fd_sc_hd__ebufn_1/Z VGND VPWR sky130_fd_sc_hd__ebufn_1
XANTENNA_mem_bottom_track_1.sc_dff_compact_5_.sky130_fd_sc_hd__dfrbp_1_D mem_bottom_track_1.sc_dff_compact_4_.sky130_fd_sc_hd__dfrbp_1/Q
+ VGND VPWR sky130_fd_sc_hd__diode_2
XANTENNA_mem_right_track_8.sc_dff_compact_3_.sky130_fd_sc_hd__dfrbp_1_D mem_right_track_8.sc_dff_compact_2_.sky130_fd_sc_hd__dfrbp_1/Q
+ VGND VPWR sky130_fd_sc_hd__diode_2
XANTENNA_mem_bottom_track_17.sc_dff_compact_0_.sky130_fd_sc_hd__dfrbp_1_CLK clkbuf_3_0_0_prog_clk/X
+ VGND VPWR sky130_fd_sc_hd__diode_2
XANTENNA_mux_right_track_0.INVTX1_2_.sky130_fd_sc_hd__inv_1_A chany_top_in[8] VGND
+ VPWR sky130_fd_sc_hd__diode_2
XANTENNA_mux_right_track_8.mux_l1_in_1_.TGATE_1_.sky130_fd_sc_hd__ebufn_1_A mux_right_track_8.INVTX1_5_.sky130_fd_sc_hd__inv_1/Y
+ VGND VPWR sky130_fd_sc_hd__diode_2
XFILLER_0_24 VGND VPWR sky130_fd_sc_hd__decap_6
XANTENNA_mem_left_track_9.sc_dff_compact_2_.sky130_fd_sc_hd__dfrbp_1_D mem_left_track_9.sc_dff_compact_1_.sky130_fd_sc_hd__dfrbp_1/Q
+ VGND VPWR sky130_fd_sc_hd__diode_2
XFILLER_9_11 VGND VPWR sky130_fd_sc_hd__fill_2
Xmux_right_track_8.mux_l2_in_0_.TGATE_1_.sky130_fd_sc_hd__ebufn_1 mux_right_track_8.mux_l1_in_1_.TGATE_2_.sky130_fd_sc_hd__ebufn_1/Z
+ mux_right_track_8.mux_l2_in_0_.TGATE_1_.sky130_fd_sc_hd__ebufn_1/TE_B mux_right_track_8.tap_buf4_0_.sky130_fd_sc_hd__inv_1/A
+ VGND VPWR sky130_fd_sc_hd__ebufn_1
XANTENNA_mem_bottom_track_9.sc_dff_compact_4_.sky130_fd_sc_hd__dfrbp_1_CLK clkbuf_3_1_0_prog_clk/X
+ VGND VPWR sky130_fd_sc_hd__diode_2
XANTENNA_clkbuf_2_1_0_prog_clk_A clkbuf_2_1_0_prog_clk/A VGND VPWR sky130_fd_sc_hd__diode_2
Xmux_top_track_0.mux_l1_in_1_.TGATE_0_.sky130_fd_sc_hd__ebufn_1 mux_top_track_0.INVTX1_4_.sky130_fd_sc_hd__inv_1/Y
+ mux_top_track_0.mux_l1_in_1_.TGATE_0_.sky130_fd_sc_hd__ebufn_1/TE_B mux_top_track_0.mux_l2_in_0_.TGATE_1_.sky130_fd_sc_hd__ebufn_1/A
+ VGND VPWR sky130_fd_sc_hd__ebufn_1
X_49_ chany_top_in[2] chany_bottom_out[3] VGND VPWR sky130_fd_sc_hd__buf_2
Xclkbuf_3_4_0_prog_clk clkbuf_3_5_0_prog_clk/A clkbuf_3_4_0_prog_clk/X VGND VPWR sky130_fd_sc_hd__clkbuf_1
Xmux_right_track_0.mux_l1_in_0_.TGATE_2_.sky130_fd_sc_hd__ebufn_1 mux_right_track_0.INVTX1_2_.sky130_fd_sc_hd__inv_1/Y
+ mux_right_track_0.mux_l1_in_0_.TGATE_2_.sky130_fd_sc_hd__ebufn_1/TE_B mux_right_track_0.mux_l1_in_0_.TGATE_3_.sky130_fd_sc_hd__ebufn_1/Z
+ VGND VPWR sky130_fd_sc_hd__ebufn_1
Xmem_right_track_0.sc_dff_compact_5_.sky130_fd_sc_hd__dfrbp_1 mem_right_track_0.sc_dff_compact_4_.sky130_fd_sc_hd__dfrbp_1/Q
+ mem_right_track_0.sc_dff_compact_6_.sky130_fd_sc_hd__dfrbp_1/D mem_right_track_0.sc_dff_compact_5_.sky130_fd_sc_hd__dfrbp_1/Q_N
+ _13_/Y clkbuf_3_4_0_prog_clk/X VGND VPWR sky130_fd_sc_hd__dfrbp_1
Xmem_top_track_16.sc_dff_compact_0_.sky130_fd_sc_hd__dfrbp_1 mem_top_track_8.sc_dff_compact_7_.sky130_fd_sc_hd__dfrbp_1/Q
+ mem_top_track_16.sc_dff_compact_0_.sky130_fd_sc_hd__dfrbp_1/Q mem_top_track_16.sc_dff_compact_0_.sky130_fd_sc_hd__dfrbp_1/Q_N
+ _13_/Y clkbuf_3_7_0_prog_clk/X VGND VPWR sky130_fd_sc_hd__dfrbp_1
XFILLER_11_220 VGND VPWR sky130_fd_sc_hd__fill_2
XFILLER_15_6 VGND VPWR sky130_fd_sc_hd__fill_2
XFILLER_22_7 VGND VPWR sky130_fd_sc_hd__fill_2
XANTENNA_mem_top_track_8.sc_dff_compact_7_.sky130_fd_sc_hd__dfrbp_1_D mem_top_track_8.sc_dff_compact_6_.sky130_fd_sc_hd__dfrbp_1/Q
+ VGND VPWR sky130_fd_sc_hd__diode_2
XANTENNA_mux_left_track_1.mux_l2_in_0_.TGATE_2_.sky130_fd_sc_hd__ebufn_1_A mux_left_track_1.INVTX1_8_.sky130_fd_sc_hd__inv_1/Y
+ VGND VPWR sky130_fd_sc_hd__diode_2
Xmem_right_track_16.sc_dff_compact_0_.sky130_fd_sc_hd__dfrbp_1 mem_right_track_8.sc_dff_compact_7_.sky130_fd_sc_hd__dfrbp_1/Q
+ mem_right_track_16.sc_dff_compact_0_.sky130_fd_sc_hd__dfrbp_1/Q mem_right_track_16.sc_dff_compact_0_.sky130_fd_sc_hd__dfrbp_1/Q_N
+ _13_/Y clkbuf_3_4_0_prog_clk/X VGND VPWR sky130_fd_sc_hd__dfrbp_1
XFILLER_20_32 VGND VPWR sky130_fd_sc_hd__fill_1
XFILLER_20_76 VGND VPWR sky130_fd_sc_hd__fill_2
XANTENNA_mem_top_track_16.sc_dff_compact_3_.sky130_fd_sc_hd__dfrbp_1_CLK clkbuf_3_6_0_prog_clk/X
+ VGND VPWR sky130_fd_sc_hd__diode_2
XFILLER_29_30 VGND VPWR sky130_fd_sc_hd__fill_2
XFILLER_19_150 VGND VPWR sky130_fd_sc_hd__fill_2
XANTENNA_mux_left_track_17.INVTX1_5_.sky130_fd_sc_hd__inv_1_A chany_bottom_in[1] VGND
+ VPWR sky130_fd_sc_hd__diode_2
XANTENNA_mux_bottom_track_9.mux_l1_in_0_.TGATE_2_.sky130_fd_sc_hd__ebufn_1_A mux_bottom_track_9.INVTX1_2_.sky130_fd_sc_hd__inv_1/Y
+ VGND VPWR sky130_fd_sc_hd__diode_2
Xmem_bottom_track_17.sc_dff_compact_2_.sky130_fd_sc_hd__dfrbp_1 mem_bottom_track_17.sc_dff_compact_1_.sky130_fd_sc_hd__dfrbp_1/Q
+ mem_bottom_track_17.sc_dff_compact_2_.sky130_fd_sc_hd__dfrbp_1/Q mem_bottom_track_17.sc_dff_compact_2_.sky130_fd_sc_hd__dfrbp_1/Q_N
+ _13_/Y clkbuf_3_0_0_prog_clk/X VGND VPWR sky130_fd_sc_hd__dfrbp_1
XFILLER_1_208 VGND VPWR sky130_fd_sc_hd__decap_12
XFILLER_25_175 VGND VPWR sky130_fd_sc_hd__fill_2
XFILLER_15_10 VGND VPWR sky130_fd_sc_hd__fill_2
XFILLER_31_53 VGND VPWR sky130_fd_sc_hd__fill_2
Xmux_top_track_8.mux_l2_in_0_.TGATE_1_.sky130_fd_sc_hd__ebufn_1 mux_top_track_8.mux_l1_in_1_.TGATE_3_.sky130_fd_sc_hd__ebufn_1/Z
+ mux_top_track_8.mux_l2_in_0_.TGATE_1_.sky130_fd_sc_hd__ebufn_1/TE_B mux_top_track_8.tap_buf4_0_.sky130_fd_sc_hd__inv_1/A
+ VGND VPWR sky130_fd_sc_hd__ebufn_1
XANTENNA_mux_left_track_1.mux_l1_in_1_.TGATE_2_.sky130_fd_sc_hd__ebufn_1_A mux_left_track_1.INVTX1_6_.sky130_fd_sc_hd__inv_1/Y
+ VGND VPWR sky130_fd_sc_hd__diode_2
XPHY_170 VGND VPWR sky130_fd_sc_hd__tapvpwrvgnd_1
Xmux_bottom_track_17.INVTX1_5_.sky130_fd_sc_hd__inv_1 chanx_left_in[0] mux_bottom_track_17.INVTX1_5_.sky130_fd_sc_hd__inv_1/Y
+ VGND VPWR sky130_fd_sc_hd__inv_1
XFILLER_16_197 VGND VPWR sky130_fd_sc_hd__decap_4
XPHY_192 VGND VPWR sky130_fd_sc_hd__tapvpwrvgnd_1
XPHY_181 VGND VPWR sky130_fd_sc_hd__tapvpwrvgnd_1
XANTENNA_mux_bottom_track_17.mux_l1_in_0_.TGATE_1_.sky130_fd_sc_hd__ebufn_1_A mux_bottom_track_17.INVTX1_1_.sky130_fd_sc_hd__inv_1/Y
+ VGND VPWR sky130_fd_sc_hd__diode_2
Xmux_left_track_17.mux_l1_in_2_.TGATE_1_.sky130_fd_sc_hd__ebufn_1 mux_left_track_17.INVTX1_7_.sky130_fd_sc_hd__inv_1/Y
+ mux_left_track_17.mux_l1_in_2_.TGATE_1_.sky130_fd_sc_hd__ebufn_1/TE_B mux_left_track_17.mux_l1_in_2_.TGATE_0_.sky130_fd_sc_hd__ebufn_1/Z
+ VGND VPWR sky130_fd_sc_hd__ebufn_1
Xmux_top_track_0.mux_l1_in_0_.TGATE_2_.sky130_fd_sc_hd__ebufn_1 mux_top_track_0.INVTX1_2_.sky130_fd_sc_hd__inv_1/Y
+ mux_top_track_0.mux_l1_in_0_.TGATE_2_.sky130_fd_sc_hd__ebufn_1/TE_B mux_top_track_0.mux_l2_in_0_.TGATE_0_.sky130_fd_sc_hd__ebufn_1/A
+ VGND VPWR sky130_fd_sc_hd__ebufn_1
XANTENNA_mem_left_track_17.sc_dff_compact_0_.sky130_fd_sc_hd__dfrbp_1_RESET_B _13_/Y
+ VGND VPWR sky130_fd_sc_hd__diode_2
XFILLER_26_75 VGND VPWR sky130_fd_sc_hd__fill_1
XFILLER_13_156 VGND VPWR sky130_fd_sc_hd__fill_2
XANTENNA_mem_left_track_9.sc_dff_compact_5_.sky130_fd_sc_hd__dfrbp_1_CLK clkbuf_3_3_0_prog_clk/X
+ VGND VPWR sky130_fd_sc_hd__diode_2
Xmux_bottom_track_1.INVTX1_0_.sky130_fd_sc_hd__inv_1 chany_top_in[0] mux_bottom_track_1.INVTX1_0_.sky130_fd_sc_hd__inv_1/Y
+ VGND VPWR sky130_fd_sc_hd__inv_1
XANTENNA_mem_right_track_8.sc_dff_compact_6_.sky130_fd_sc_hd__dfrbp_1_D mem_right_track_8.sc_dff_compact_5_.sky130_fd_sc_hd__dfrbp_1/Q
+ VGND VPWR sky130_fd_sc_hd__diode_2
XFILLER_36_215 VGND VPWR sky130_fd_sc_hd__decap_6
XANTENNA_mem_left_track_9.sc_dff_compact_5_.sky130_fd_sc_hd__dfrbp_1_D mem_left_track_9.sc_dff_compact_5_.sky130_fd_sc_hd__dfrbp_1/D
+ VGND VPWR sky130_fd_sc_hd__diode_2
XANTENNA_mux_top_track_8.mux_l1_in_0_.TGATE_1_.sky130_fd_sc_hd__ebufn_1_A mux_top_track_8.INVTX1_1_.sky130_fd_sc_hd__inv_1/Y
+ VGND VPWR sky130_fd_sc_hd__diode_2
Xmux_bottom_track_9.INVTX1_7_.sky130_fd_sc_hd__inv_1 chanx_left_in[6] mux_bottom_track_9.INVTX1_7_.sky130_fd_sc_hd__inv_1/Y
+ VGND VPWR sky130_fd_sc_hd__inv_1
XFILLER_12_11 VGND VPWR sky130_fd_sc_hd__fill_2
XFILLER_12_22 VGND VPWR sky130_fd_sc_hd__fill_2
XFILLER_12_44 VGND VPWR sky130_fd_sc_hd__decap_8
XFILLER_37_63 VGND VPWR sky130_fd_sc_hd__decap_12
XFILLER_33_207 VGND VPWR sky130_fd_sc_hd__decap_12
XFILLER_18_215 VGND VPWR sky130_fd_sc_hd__decap_6
XANTENNA_mux_top_track_16.INVTX1_3_.sky130_fd_sc_hd__inv_1_A chany_bottom_in[2] VGND
+ VPWR sky130_fd_sc_hd__diode_2
XFILLER_5_196 VGND VPWR sky130_fd_sc_hd__fill_2
XANTENNA_mem_bottom_track_17.sc_dff_compact_4_.sky130_fd_sc_hd__dfrbp_1_RESET_B _13_/Y
+ VGND VPWR sky130_fd_sc_hd__diode_2
XFILLER_15_207 VGND VPWR sky130_fd_sc_hd__fill_2
XFILLER_23_10 VGND VPWR sky130_fd_sc_hd__fill_2
XFILLER_23_54 VGND VPWR sky130_fd_sc_hd__fill_2
XFILLER_2_111 VGND VPWR sky130_fd_sc_hd__decap_4
XFILLER_0_36 VGND VPWR sky130_fd_sc_hd__fill_2
XFILLER_9_23 VGND VPWR sky130_fd_sc_hd__fill_2
XFILLER_9_34 VGND VPWR sky130_fd_sc_hd__decap_4
XANTENNA_mem_left_track_17.sc_dff_compact_2_.sky130_fd_sc_hd__dfrbp_1_D mem_left_track_17.sc_dff_compact_1_.sky130_fd_sc_hd__dfrbp_1/Q
+ VGND VPWR sky130_fd_sc_hd__diode_2
X_48_ _48_/A chany_bottom_out[4] VGND VPWR sky130_fd_sc_hd__buf_2
XANTENNA_mem_right_track_0.sc_dff_compact_2_.sky130_fd_sc_hd__dfrbp_1_CLK clkbuf_3_5_0_prog_clk/X
+ VGND VPWR sky130_fd_sc_hd__diode_2
XFILLER_20_221 VGND VPWR sky130_fd_sc_hd__fill_1
XANTENNA_mux_bottom_track_1.INVTX1_6_.sky130_fd_sc_hd__inv_1_A chanx_left_in[1] VGND
+ VPWR sky130_fd_sc_hd__diode_2
XFILLER_29_118 VGND VPWR sky130_fd_sc_hd__fill_2
Xmux_right_track_8.mux_l1_in_1_.TGATE_0_.sky130_fd_sc_hd__ebufn_1 mux_right_track_8.INVTX1_4_.sky130_fd_sc_hd__inv_1/Y
+ mux_right_track_8.mux_l1_in_1_.TGATE_0_.sky130_fd_sc_hd__ebufn_1/TE_B mux_right_track_8.mux_l1_in_1_.TGATE_2_.sky130_fd_sc_hd__ebufn_1/Z
+ VGND VPWR sky130_fd_sc_hd__ebufn_1
Xmux_top_track_0.INVTX1_8_.sky130_fd_sc_hd__inv_1 chanx_left_in[4] mux_top_track_0.INVTX1_8_.sky130_fd_sc_hd__inv_1/Y
+ VGND VPWR sky130_fd_sc_hd__inv_1
XFILLER_4_206 VGND VPWR sky130_fd_sc_hd__decap_8
XFILLER_29_53 VGND VPWR sky130_fd_sc_hd__fill_2
XFILLER_29_42 VGND VPWR sky130_fd_sc_hd__fill_2
XFILLER_6_35 VGND VPWR sky130_fd_sc_hd__decap_12
XFILLER_19_162 VGND VPWR sky130_fd_sc_hd__fill_2
XFILLER_19_173 VGND VPWR sky130_fd_sc_hd__fill_2
XFILLER_34_187 VGND VPWR sky130_fd_sc_hd__fill_2
Xmux_right_track_16.INVTX1_4_.sky130_fd_sc_hd__inv_1 chany_bottom_in[6] mux_right_track_16.INVTX1_4_.sky130_fd_sc_hd__inv_1/Y
+ VGND VPWR sky130_fd_sc_hd__inv_1
XANTENNA_mux_top_track_8.INVTX1_2_.sky130_fd_sc_hd__inv_1_A chanx_right_in[6] VGND
+ VPWR sky130_fd_sc_hd__diode_2
XFILLER_31_65 VGND VPWR sky130_fd_sc_hd__fill_2
XPHY_193 VGND VPWR sky130_fd_sc_hd__tapvpwrvgnd_1
XFILLER_31_179 VGND VPWR sky130_fd_sc_hd__fill_2
XFILLER_31_146 VGND VPWR sky130_fd_sc_hd__fill_2
XPHY_182 VGND VPWR sky130_fd_sc_hd__tapvpwrvgnd_1
XPHY_171 VGND VPWR sky130_fd_sc_hd__tapvpwrvgnd_1
XPHY_160 VGND VPWR sky130_fd_sc_hd__tapvpwrvgnd_1
XANTENNA_mem_right_track_0.sc_dff_compact_3_.sky130_fd_sc_hd__dfrbp_1_RESET_B _13_/Y
+ VGND VPWR sky130_fd_sc_hd__diode_2
Xmem_left_track_9.sc_dff_compact_4_.sky130_fd_sc_hd__dfrbp_1 mem_left_track_9.sc_dff_compact_4_.sky130_fd_sc_hd__dfrbp_1/D
+ mem_left_track_9.sc_dff_compact_5_.sky130_fd_sc_hd__dfrbp_1/D mem_left_track_9.sc_dff_compact_4_.sky130_fd_sc_hd__dfrbp_1/Q_N
+ _13_/Y clkbuf_3_2_0_prog_clk/X VGND VPWR sky130_fd_sc_hd__dfrbp_1
Xmux_right_track_0.INVTX1_7_.sky130_fd_sc_hd__inv_1 chanx_left_in[0] mux_right_track_0.INVTX1_7_.sky130_fd_sc_hd__inv_1/Y
+ VGND VPWR sky130_fd_sc_hd__inv_1
XFILLER_22_124 VGND VPWR sky130_fd_sc_hd__fill_2
Xmux_bottom_track_17.mux_l1_in_2_.TGATE_1_.sky130_fd_sc_hd__ebufn_1 mux_bottom_track_17.INVTX1_7_.sky130_fd_sc_hd__inv_1/Y
+ mux_bottom_track_17.mux_l1_in_2_.TGATE_1_.sky130_fd_sc_hd__ebufn_1/TE_B mux_bottom_track_17.mux_l1_in_2_.TGATE_2_.sky130_fd_sc_hd__ebufn_1/Z
+ VGND VPWR sky130_fd_sc_hd__ebufn_1
XANTENNA_mux_right_track_8.mux_l1_in_0_.TGATE_1_.sky130_fd_sc_hd__ebufn_1_A mux_right_track_8.INVTX1_1_.sky130_fd_sc_hd__inv_1/Y
+ VGND VPWR sky130_fd_sc_hd__diode_2
XFILLER_26_21 VGND VPWR sky130_fd_sc_hd__decap_4
XFILLER_26_87 VGND VPWR sky130_fd_sc_hd__fill_2
XFILLER_9_139 VGND VPWR sky130_fd_sc_hd__fill_2
XFILLER_13_102 VGND VPWR sky130_fd_sc_hd__fill_1
XFILLER_13_146 VGND VPWR sky130_fd_sc_hd__decap_4
XFILLER_13_179 VGND VPWR sky130_fd_sc_hd__fill_2
XANTENNA_mem_bottom_track_9.sc_dff_compact_0_.sky130_fd_sc_hd__dfrbp_1_RESET_B _13_/Y
+ VGND VPWR sky130_fd_sc_hd__diode_2
XFILLER_3_47 VGND VPWR sky130_fd_sc_hd__fill_2
XFILLER_3_36 VGND VPWR sky130_fd_sc_hd__fill_2
XANTENNA_mem_bottom_track_1.sc_dff_compact_6_.sky130_fd_sc_hd__dfrbp_1_RESET_B _13_/Y
+ VGND VPWR sky130_fd_sc_hd__diode_2
Xmux_top_track_16.mux_l1_in_2_.TGATE_2_.sky130_fd_sc_hd__ebufn_1 _14_/HI mux_top_track_16.mux_l1_in_2_.TGATE_2_.sky130_fd_sc_hd__ebufn_1/TE_B
+ mux_top_track_16.mux_l2_in_0_.TGATE_2_.sky130_fd_sc_hd__ebufn_1/A VGND VPWR sky130_fd_sc_hd__ebufn_1
Xmux_top_track_8.mux_l1_in_1_.TGATE_0_.sky130_fd_sc_hd__ebufn_1 mux_top_track_8.INVTX1_4_.sky130_fd_sc_hd__inv_1/Y
+ mux_top_track_8.mux_l1_in_1_.TGATE_0_.sky130_fd_sc_hd__ebufn_1/TE_B mux_top_track_8.mux_l1_in_1_.TGATE_3_.sky130_fd_sc_hd__ebufn_1/Z
+ VGND VPWR sky130_fd_sc_hd__ebufn_1
XFILLER_8_172 VGND VPWR sky130_fd_sc_hd__fill_1
XANTENNA_mem_left_track_17.sc_dff_compact_5_.sky130_fd_sc_hd__dfrbp_1_D mem_left_track_17.sc_dff_compact_4_.sky130_fd_sc_hd__dfrbp_1/Q
+ VGND VPWR sky130_fd_sc_hd__diode_2
Xmux_right_track_8.mux_l1_in_0_.TGATE_2_.sky130_fd_sc_hd__ebufn_1 mux_right_track_8.INVTX1_2_.sky130_fd_sc_hd__inv_1/Y
+ mux_right_track_8.mux_l1_in_0_.TGATE_2_.sky130_fd_sc_hd__ebufn_1/TE_B mux_right_track_8.mux_l1_in_0_.TGATE_1_.sky130_fd_sc_hd__ebufn_1/Z
+ VGND VPWR sky130_fd_sc_hd__ebufn_1
XANTENNA_mem_top_track_8.sc_dff_compact_3_.sky130_fd_sc_hd__dfrbp_1_RESET_B _13_/Y
+ VGND VPWR sky130_fd_sc_hd__diode_2
Xmux_bottom_track_17.INVTX1_1_.sky130_fd_sc_hd__inv_1 chany_top_in[6] mux_bottom_track_17.INVTX1_1_.sky130_fd_sc_hd__inv_1/Y
+ VGND VPWR sky130_fd_sc_hd__inv_1
XFILLER_10_149 VGND VPWR sky130_fd_sc_hd__fill_2
Xmux_top_track_16.INVTX1_4_.sky130_fd_sc_hd__inv_1 chany_bottom_in[6] mux_top_track_16.INVTX1_4_.sky130_fd_sc_hd__inv_1/Y
+ VGND VPWR sky130_fd_sc_hd__inv_1
XFILLER_37_75 VGND VPWR sky130_fd_sc_hd__decap_12
XFILLER_33_219 VGND VPWR sky130_fd_sc_hd__decap_3
Xmem_right_track_8.sc_dff_compact_1_.sky130_fd_sc_hd__dfrbp_1 mem_right_track_8.sc_dff_compact_0_.sky130_fd_sc_hd__dfrbp_1/Q
+ mem_right_track_8.sc_dff_compact_2_.sky130_fd_sc_hd__dfrbp_1/D mem_right_track_8.sc_dff_compact_1_.sky130_fd_sc_hd__dfrbp_1/Q_N
+ _13_/Y clkbuf_3_5_0_prog_clk/X VGND VPWR sky130_fd_sc_hd__dfrbp_1
XFILLER_5_175 VGND VPWR sky130_fd_sc_hd__fill_2
XFILLER_5_164 VGND VPWR sky130_fd_sc_hd__decap_4
XANTENNA_mem_left_track_9.sc_dff_compact_3_.sky130_fd_sc_hd__dfrbp_1_RESET_B _13_/Y
+ VGND VPWR sky130_fd_sc_hd__diode_2
XFILLER_15_219 VGND VPWR sky130_fd_sc_hd__decap_3
Xmux_bottom_track_9.INVTX1_3_.sky130_fd_sc_hd__inv_1 chanx_right_in[3] mux_bottom_track_9.INVTX1_3_.sky130_fd_sc_hd__inv_1/Y
+ VGND VPWR sky130_fd_sc_hd__inv_1
XFILLER_2_145 VGND VPWR sky130_fd_sc_hd__decap_8
XFILLER_2_134 VGND VPWR sky130_fd_sc_hd__decap_3
XANTENNA_mem_right_track_16.sc_dff_compact_0_.sky130_fd_sc_hd__dfrbp_1_RESET_B _13_/Y
+ VGND VPWR sky130_fd_sc_hd__diode_2
XFILLER_0_48 VGND VPWR sky130_fd_sc_hd__fill_2
XFILLER_9_46 VGND VPWR sky130_fd_sc_hd__decap_4
XFILLER_9_57 VGND VPWR sky130_fd_sc_hd__fill_2
XFILLER_36_3 VGND VPWR sky130_fd_sc_hd__fill_2
X_47_ chany_top_in[4] chany_bottom_out[5] VGND VPWR sky130_fd_sc_hd__buf_2
XANTENNA_mem_right_track_8.sc_dff_compact_7_.sky130_fd_sc_hd__dfrbp_1_RESET_B _13_/Y
+ VGND VPWR sky130_fd_sc_hd__diode_2
XANTENNA_mux_bottom_track_1.mux_l2_in_0_.TGATE_0_.sky130_fd_sc_hd__ebufn_1_A mux_bottom_track_1.mux_l1_in_0_.TGATE_1_.sky130_fd_sc_hd__ebufn_1/Z
+ VGND VPWR sky130_fd_sc_hd__diode_2
XANTENNA_mux_left_track_1.mux_l1_in_0_.TGATE_2_.sky130_fd_sc_hd__ebufn_1_A mux_left_track_1.INVTX1_2_.sky130_fd_sc_hd__inv_1/Y
+ VGND VPWR sky130_fd_sc_hd__diode_2
XFILLER_18_11 VGND VPWR sky130_fd_sc_hd__fill_1
XFILLER_18_44 VGND VPWR sky130_fd_sc_hd__fill_2
XFILLER_34_10 VGND VPWR sky130_fd_sc_hd__decap_4
XFILLER_18_88 VGND VPWR sky130_fd_sc_hd__fill_2
Xmux_left_track_1.INVTX1_7_.sky130_fd_sc_hd__inv_1 chany_bottom_in[8] mux_left_track_1.INVTX1_7_.sky130_fd_sc_hd__inv_1/Y
+ VGND VPWR sky130_fd_sc_hd__inv_1
XANTENNA_mem_top_track_0.sc_dff_compact_4_.sky130_fd_sc_hd__dfrbp_1_CLK clkbuf_3_7_0_prog_clk/X
+ VGND VPWR sky130_fd_sc_hd__diode_2
Xmux_top_track_8.mux_l1_in_0_.TGATE_2_.sky130_fd_sc_hd__ebufn_1 mux_top_track_8.INVTX1_2_.sky130_fd_sc_hd__inv_1/Y
+ mux_top_track_8.mux_l1_in_0_.TGATE_2_.sky130_fd_sc_hd__ebufn_1/TE_B mux_top_track_8.mux_l1_in_0_.TGATE_0_.sky130_fd_sc_hd__ebufn_1/Z
+ VGND VPWR sky130_fd_sc_hd__ebufn_1
Xmem_left_track_1.sc_dff_compact_1_.sky130_fd_sc_hd__dfrbp_1 mem_left_track_1.sc_dff_compact_1_.sky130_fd_sc_hd__dfrbp_1/D
+ mem_left_track_1.sc_dff_compact_2_.sky130_fd_sc_hd__dfrbp_1/D mem_left_track_1.sc_dff_compact_1_.sky130_fd_sc_hd__dfrbp_1/Q_N
+ _13_/Y clkbuf_3_0_0_prog_clk/X VGND VPWR sky130_fd_sc_hd__dfrbp_1
XFILLER_1_80 VGND VPWR sky130_fd_sc_hd__fill_2
Xmem_top_track_0.sc_dff_compact_5_.sky130_fd_sc_hd__dfrbp_1 mem_top_track_0.sc_dff_compact_4_.sky130_fd_sc_hd__dfrbp_1/Q
+ mem_top_track_0.sc_dff_compact_6_.sky130_fd_sc_hd__dfrbp_1/D mem_top_track_0.sc_dff_compact_5_.sky130_fd_sc_hd__dfrbp_1/Q_N
+ _13_/Y clkbuf_3_7_0_prog_clk/X VGND VPWR sky130_fd_sc_hd__dfrbp_1
XFILLER_20_45 VGND VPWR sky130_fd_sc_hd__fill_2
XANTENNA_clkbuf_1_0_0_prog_clk_A clkbuf_0_prog_clk/X VGND VPWR sky130_fd_sc_hd__diode_2
XFILLER_6_47 VGND VPWR sky130_fd_sc_hd__fill_1
XFILLER_34_122 VGND VPWR sky130_fd_sc_hd__fill_1
XFILLER_34_177 VGND VPWR sky130_fd_sc_hd__decap_4
XANTENNA_mux_bottom_track_1.mux_l1_in_1_.TGATE_0_.sky130_fd_sc_hd__ebufn_1_A mux_bottom_track_1.INVTX1_4_.sky130_fd_sc_hd__inv_1/Y
+ VGND VPWR sky130_fd_sc_hd__diode_2
XFILLER_31_77 VGND VPWR sky130_fd_sc_hd__fill_1
XFILLER_31_22 VGND VPWR sky130_fd_sc_hd__fill_2
Xmux_left_track_1.mux_l1_in_0_.TGATE_0_.sky130_fd_sc_hd__ebufn_1 mux_left_track_1.INVTX1_0_.sky130_fd_sc_hd__inv_1/Y
+ mux_left_track_1.mux_l1_in_0_.TGATE_0_.sky130_fd_sc_hd__ebufn_1/TE_B mux_left_track_1.mux_l1_in_0_.TGATE_3_.sky130_fd_sc_hd__ebufn_1/Z
+ VGND VPWR sky130_fd_sc_hd__ebufn_1
XPHY_194 VGND VPWR sky130_fd_sc_hd__tapvpwrvgnd_1
XFILLER_31_114 VGND VPWR sky130_fd_sc_hd__fill_2
XFILLER_31_103 VGND VPWR sky130_fd_sc_hd__fill_2
XPHY_183 VGND VPWR sky130_fd_sc_hd__tapvpwrvgnd_1
XPHY_172 VGND VPWR sky130_fd_sc_hd__tapvpwrvgnd_1
XFILLER_16_177 VGND VPWR sky130_fd_sc_hd__fill_2
XPHY_150 VGND VPWR sky130_fd_sc_hd__tapvpwrvgnd_1
XPHY_161 VGND VPWR sky130_fd_sc_hd__tapvpwrvgnd_1
Xmux_top_track_0.INVTX1_4_.sky130_fd_sc_hd__inv_1 chany_bottom_in[0] mux_top_track_0.INVTX1_4_.sky130_fd_sc_hd__inv_1/Y
+ VGND VPWR sky130_fd_sc_hd__inv_1
XANTENNA_mux_right_track_16.mux_l1_in_2_.TGATE_0_.sky130_fd_sc_hd__ebufn_1_A mux_right_track_16.INVTX1_6_.sky130_fd_sc_hd__inv_1/Y
+ VGND VPWR sky130_fd_sc_hd__diode_2
Xclkbuf_2_1_0_prog_clk clkbuf_2_1_0_prog_clk/A clkbuf_3_3_0_prog_clk/A VGND VPWR sky130_fd_sc_hd__clkbuf_1
XANTENNA_mux_left_track_9.INVTX1_8_.sky130_fd_sc_hd__inv_1_A left_bottom_grid_pin_12_
+ VGND VPWR sky130_fd_sc_hd__diode_2
XFILLER_26_55 VGND VPWR sky130_fd_sc_hd__decap_3
XANTENNA_mem_right_track_16.sc_dff_compact_1_.sky130_fd_sc_hd__dfrbp_1_D mem_right_track_16.sc_dff_compact_0_.sky130_fd_sc_hd__dfrbp_1/Q
+ VGND VPWR sky130_fd_sc_hd__diode_2
XFILLER_9_118 VGND VPWR sky130_fd_sc_hd__fill_2
XFILLER_13_114 VGND VPWR sky130_fd_sc_hd__fill_2
XFILLER_36_206 VGND VPWR sky130_fd_sc_hd__decap_8
Xmux_right_track_16.INVTX1_0_.sky130_fd_sc_hd__inv_1 chany_top_in[1] mux_right_track_16.INVTX1_0_.sky130_fd_sc_hd__inv_1/Y
+ VGND VPWR sky130_fd_sc_hd__inv_1
XFILLER_8_162 VGND VPWR sky130_fd_sc_hd__fill_2
XANTENNA_mem_right_track_8.sc_dff_compact_2_.sky130_fd_sc_hd__dfrbp_1_CLK clkbuf_3_5_0_prog_clk/X
+ VGND VPWR sky130_fd_sc_hd__diode_2
XFILLER_10_117 VGND VPWR sky130_fd_sc_hd__decap_4
XFILLER_37_32 VGND VPWR sky130_fd_sc_hd__decap_8
XFILLER_18_206 VGND VPWR sky130_fd_sc_hd__decap_8
XFILLER_37_87 VGND VPWR sky130_fd_sc_hd__decap_6
XANTENNA_mux_bottom_track_1.mux_l2_in_0_.TGATE_3_.sky130_fd_sc_hd__ebufn_1_A _16_/HI
+ VGND VPWR sky130_fd_sc_hd__diode_2
Xmux_right_track_0.INVTX1_3_.sky130_fd_sc_hd__inv_1 right_top_grid_pin_10_ mux_right_track_0.INVTX1_3_.sky130_fd_sc_hd__inv_1/Y
+ VGND VPWR sky130_fd_sc_hd__inv_1
XFILLER_5_132 VGND VPWR sky130_fd_sc_hd__fill_2
XANTENNA_mux_bottom_track_9.INVTX1_3_.sky130_fd_sc_hd__inv_1_A chanx_right_in[3] VGND
+ VPWR sky130_fd_sc_hd__diode_2
XANTENNA_mem_top_track_0.sc_dff_compact_1_.sky130_fd_sc_hd__dfrbp_1_D mem_top_track_0.sc_dff_compact_0_.sky130_fd_sc_hd__dfrbp_1/Q
+ VGND VPWR sky130_fd_sc_hd__diode_2
XFILLER_23_23 VGND VPWR sky130_fd_sc_hd__fill_2
XFILLER_9_69 VGND VPWR sky130_fd_sc_hd__fill_2
XANTENNA_mem_bottom_track_1.sc_dff_compact_3_.sky130_fd_sc_hd__dfrbp_1_CLK clkbuf_3_4_0_prog_clk/X
+ VGND VPWR sky130_fd_sc_hd__diode_2
XANTENNA_mem_left_track_17.sc_dff_compact_1_.sky130_fd_sc_hd__dfrbp_1_CLK clkbuf_3_3_0_prog_clk/X
+ VGND VPWR sky130_fd_sc_hd__diode_2
X_46_ chany_top_in[5] chany_bottom_out[6] VGND VPWR sky130_fd_sc_hd__buf_2
Xmux_top_track_16.INVTX1_0_.sky130_fd_sc_hd__inv_1 chanx_right_in[0] mux_top_track_16.INVTX1_0_.sky130_fd_sc_hd__inv_1/Y
+ VGND VPWR sky130_fd_sc_hd__inv_1
XFILLER_20_201 VGND VPWR sky130_fd_sc_hd__fill_1
XANTENNA_mux_bottom_track_1.mux_l1_in_1_.TGATE_3_.sky130_fd_sc_hd__ebufn_1_A mux_bottom_track_1.INVTX1_7_.sky130_fd_sc_hd__inv_1/Y
+ VGND VPWR sky130_fd_sc_hd__diode_2
XFILLER_18_23 VGND VPWR sky130_fd_sc_hd__fill_2
XANTENNA_mux_top_track_0.mux_l2_in_0_.TGATE_2_.sky130_fd_sc_hd__ebufn_1_A mux_top_track_0.INVTX1_8_.sky130_fd_sc_hd__inv_1/Y
+ VGND VPWR sky130_fd_sc_hd__diode_2
XFILLER_34_22 VGND VPWR sky130_fd_sc_hd__fill_2
XFILLER_11_212 VGND VPWR sky130_fd_sc_hd__decap_8
XANTENNA_mux_left_track_1.INVTX1_4_.sky130_fd_sc_hd__inv_1_A chanx_right_in[4] VGND
+ VPWR sky130_fd_sc_hd__diode_2
XFILLER_37_197 VGND VPWR sky130_fd_sc_hd__decap_8
X_29_ chanx_right_in[4] chanx_left_out[5] VGND VPWR sky130_fd_sc_hd__buf_2
XFILLER_20_24 VGND VPWR sky130_fd_sc_hd__fill_2
Xmem_bottom_track_9.sc_dff_compact_7_.sky130_fd_sc_hd__dfrbp_1 mem_bottom_track_9.sc_dff_compact_7_.sky130_fd_sc_hd__dfrbp_1/D
+ mem_bottom_track_9.sc_dff_compact_7_.sky130_fd_sc_hd__dfrbp_1/Q mem_bottom_track_9.sc_dff_compact_7_.sky130_fd_sc_hd__dfrbp_1/Q_N
+ _13_/Y clkbuf_3_0_0_prog_clk/X VGND VPWR sky130_fd_sc_hd__dfrbp_1
XFILLER_29_99 VGND VPWR sky130_fd_sc_hd__fill_2
XFILLER_28_120 VGND VPWR sky130_fd_sc_hd__decap_3
XANTENNA_mem_right_track_16.sc_dff_compact_4_.sky130_fd_sc_hd__dfrbp_1_D mem_right_track_16.sc_dff_compact_3_.sky130_fd_sc_hd__dfrbp_1/Q
+ VGND VPWR sky130_fd_sc_hd__diode_2
Xclkbuf_3_3_0_prog_clk clkbuf_3_3_0_prog_clk/A clkbuf_3_3_0_prog_clk/X VGND VPWR sky130_fd_sc_hd__clkbuf_1
XFILLER_20_7 VGND VPWR sky130_fd_sc_hd__decap_3
XFILLER_34_145 VGND VPWR sky130_fd_sc_hd__decap_6
XFILLER_34_134 VGND VPWR sky130_fd_sc_hd__decap_8
XANTENNA_mem_right_track_0.sc_dff_compact_0_.sky130_fd_sc_hd__dfrbp_1_D mem_top_track_16.sc_dff_compact_5_.sky130_fd_sc_hd__dfrbp_1/Q
+ VGND VPWR sky130_fd_sc_hd__diode_2
XANTENNA_mem_bottom_track_17.sc_dff_compact_0_.sky130_fd_sc_hd__dfrbp_1_D mem_bottom_track_9.sc_dff_compact_7_.sky130_fd_sc_hd__dfrbp_1/Q
+ VGND VPWR sky130_fd_sc_hd__diode_2
XANTENNA_mux_top_track_0.mux_l1_in_1_.TGATE_2_.sky130_fd_sc_hd__ebufn_1_A mux_top_track_0.INVTX1_6_.sky130_fd_sc_hd__inv_1/Y
+ VGND VPWR sky130_fd_sc_hd__diode_2
Xmux_left_track_1.INVTX1_3_.sky130_fd_sc_hd__inv_1 chanx_right_in[0] mux_left_track_1.INVTX1_3_.sky130_fd_sc_hd__inv_1/Y
+ VGND VPWR sky130_fd_sc_hd__inv_1
XFILLER_25_101 VGND VPWR sky130_fd_sc_hd__fill_2
XFILLER_15_57 VGND VPWR sky130_fd_sc_hd__fill_2
XFILLER_16_123 VGND VPWR sky130_fd_sc_hd__fill_1
XFILLER_16_145 VGND VPWR sky130_fd_sc_hd__fill_2
XPHY_195 VGND VPWR sky130_fd_sc_hd__tapvpwrvgnd_1
XFILLER_31_159 VGND VPWR sky130_fd_sc_hd__fill_2
XPHY_184 VGND VPWR sky130_fd_sc_hd__tapvpwrvgnd_1
XPHY_173 VGND VPWR sky130_fd_sc_hd__tapvpwrvgnd_1
XPHY_140 VGND VPWR sky130_fd_sc_hd__tapvpwrvgnd_1
XPHY_151 VGND VPWR sky130_fd_sc_hd__tapvpwrvgnd_1
XPHY_162 VGND VPWR sky130_fd_sc_hd__tapvpwrvgnd_1
XANTENNA_mux_right_track_16.INVTX1_4_.sky130_fd_sc_hd__inv_1_A chany_bottom_in[6]
+ VGND VPWR sky130_fd_sc_hd__diode_2
XFILLER_7_80 VGND VPWR sky130_fd_sc_hd__fill_2
XFILLER_7_91 VGND VPWR sky130_fd_sc_hd__decap_4
XFILLER_26_78 VGND VPWR sky130_fd_sc_hd__fill_2
XANTENNA_mem_top_track_0.sc_dff_compact_4_.sky130_fd_sc_hd__dfrbp_1_D mem_top_track_0.sc_dff_compact_4_.sky130_fd_sc_hd__dfrbp_1/D
+ VGND VPWR sky130_fd_sc_hd__diode_2
XANTENNA_mem_left_track_1.sc_dff_compact_4_.sky130_fd_sc_hd__dfrbp_1_CLK clkbuf_3_1_0_prog_clk/X
+ VGND VPWR sky130_fd_sc_hd__diode_2