* NGSPICE file created from sb_1__1_.ext - technology: sky130A

* Black-box entry subcircuit for sky130_fd_sc_hd__fill_1 abstract view
.subckt sky130_fd_sc_hd__fill_1 VGND VPWR
.ends

* Black-box entry subcircuit for sky130_fd_sc_hd__fill_2 abstract view
.subckt sky130_fd_sc_hd__fill_2 VGND VPWR
.ends

* Black-box entry subcircuit for sky130_fd_sc_hd__dfrbp_1 abstract view
.subckt sky130_fd_sc_hd__dfrbp_1 D Q Q_N RESET_B CLK VGND VPWR
.ends

* Black-box entry subcircuit for sky130_fd_sc_hd__diode_2 abstract view
.subckt sky130_fd_sc_hd__diode_2 DIODE VGND VPWR
.ends

* Black-box entry subcircuit for sky130_fd_sc_hd__clkbuf_1 abstract view
.subckt sky130_fd_sc_hd__clkbuf_1 A X VGND VPWR
.ends

* Black-box entry subcircuit for sky130_fd_sc_hd__decap_4 abstract view
.subckt sky130_fd_sc_hd__decap_4 VGND VPWR
.ends

* Black-box entry subcircuit for sky130_fd_sc_hd__decap_3 abstract view
.subckt sky130_fd_sc_hd__decap_3 VGND VPWR
.ends

* Black-box entry subcircuit for sky130_fd_sc_hd__decap_8 abstract view
.subckt sky130_fd_sc_hd__decap_8 VGND VPWR
.ends

* Black-box entry subcircuit for sky130_fd_sc_hd__buf_2 abstract view
.subckt sky130_fd_sc_hd__buf_2 A X VGND VPWR
.ends

* Black-box entry subcircuit for sky130_fd_sc_hd__conb_1 abstract view
.subckt sky130_fd_sc_hd__conb_1 HI LO VGND VPWR
.ends

* Black-box entry subcircuit for sky130_fd_sc_hd__tapvpwrvgnd_1 abstract view
.subckt sky130_fd_sc_hd__tapvpwrvgnd_1 VGND VPWR
.ends

* Black-box entry subcircuit for sky130_fd_sc_hd__clkbuf_16 abstract view
.subckt sky130_fd_sc_hd__clkbuf_16 A X VGND VPWR
.ends

* Black-box entry subcircuit for sky130_fd_sc_hd__inv_8 abstract view
.subckt sky130_fd_sc_hd__inv_8 A Y VGND VPWR
.ends

* Black-box entry subcircuit for sky130_fd_sc_hd__decap_12 abstract view
.subckt sky130_fd_sc_hd__decap_12 VGND VPWR
.ends

* Black-box entry subcircuit for sky130_fd_sc_hd__decap_6 abstract view
.subckt sky130_fd_sc_hd__decap_6 VGND VPWR
.ends

.subckt sb_1__1_ bottom_left_grid_pin_13_ bottom_right_grid_pin_11_ ccff_head ccff_tail
+ chanx_left_in[0] chanx_left_in[1] chanx_left_in[2] chanx_left_in[3] chanx_left_in[4]
+ chanx_left_in[5] chanx_left_in[6] chanx_left_in[7] chanx_left_in[8] chanx_left_out[0]
+ chanx_left_out[1] chanx_left_out[2] chanx_left_out[3] chanx_left_out[4] chanx_left_out[5]
+ chanx_left_out[6] chanx_left_out[7] chanx_left_out[8] chanx_right_in[0] chanx_right_in[1]
+ chanx_right_in[2] chanx_right_in[3] chanx_right_in[4] chanx_right_in[5] chanx_right_in[6]
+ chanx_right_in[7] chanx_right_in[8] chanx_right_out[0] chanx_right_out[1] chanx_right_out[2]
+ chanx_right_out[3] chanx_right_out[4] chanx_right_out[5] chanx_right_out[6] chanx_right_out[7]
+ chanx_right_out[8] chany_bottom_in[0] chany_bottom_in[1] chany_bottom_in[2] chany_bottom_in[3]
+ chany_bottom_in[4] chany_bottom_in[5] chany_bottom_in[6] chany_bottom_in[7] chany_bottom_in[8]
+ chany_bottom_out[0] chany_bottom_out[1] chany_bottom_out[2] chany_bottom_out[3]
+ chany_bottom_out[4] chany_bottom_out[5] chany_bottom_out[6] chany_bottom_out[7]
+ chany_bottom_out[8] chany_top_in[0] chany_top_in[1] chany_top_in[2] chany_top_in[3]
+ chany_top_in[4] chany_top_in[5] chany_top_in[6] chany_top_in[7] chany_top_in[8]
+ chany_top_out[0] chany_top_out[1] chany_top_out[2] chany_top_out[3] chany_top_out[4]
+ chany_top_out[5] chany_top_out[6] chany_top_out[7] chany_top_out[8] left_bottom_grid_pin_12_
+ left_top_grid_pin_10_ pReset prog_clk right_bottom_grid_pin_12_ right_top_grid_pin_10_
+ top_left_grid_pin_13_ top_right_grid_pin_11_ VPWR VGND
XFILLER_9_148 VGND VPWR sky130_fd_sc_hd__fill_1
XFILLER_13_111 VGND VPWR sky130_fd_sc_hd__fill_2
Xmem_bottom_track_1.sc_dff_compact_1_.sky130_fd_sc_hd__dfrbp_1 mem_bottom_track_1.sc_dff_compact_0_.sky130_fd_sc_hd__dfrbp_1/Q
+ mem_bottom_track_1.sc_dff_compact_2_.sky130_fd_sc_hd__dfrbp_1/D mem_bottom_track_1.sc_dff_compact_1_.sky130_fd_sc_hd__dfrbp_1/Q_N
+ _01_/Y clkbuf_3_4_0_prog_clk/X VGND VPWR sky130_fd_sc_hd__dfrbp_1
XFILLER_10_147 VGND VPWR sky130_fd_sc_hd__fill_2
XANTENNA_mem_bottom_track_1.sc_dff_compact_5_.sky130_fd_sc_hd__dfrbp_1_D mem_bottom_track_1.sc_dff_compact_5_.sky130_fd_sc_hd__dfrbp_1/D
+ VGND VPWR sky130_fd_sc_hd__diode_2
XANTENNA_mem_bottom_track_17.sc_dff_compact_0_.sky130_fd_sc_hd__dfrbp_1_CLK clkbuf_3_4_0_prog_clk/X
+ VGND VPWR sky130_fd_sc_hd__diode_2
XFILLER_23_97 VGND VPWR sky130_fd_sc_hd__fill_2
XANTENNA_mem_right_track_8.sc_dff_compact_3_.sky130_fd_sc_hd__dfrbp_1_D mem_right_track_8.sc_dff_compact_2_.sky130_fd_sc_hd__dfrbp_1/Q
+ VGND VPWR sky130_fd_sc_hd__diode_2
XANTENNA_mem_left_track_9.sc_dff_compact_2_.sky130_fd_sc_hd__dfrbp_1_D mem_left_track_9.sc_dff_compact_2_.sky130_fd_sc_hd__dfrbp_1/D
+ VGND VPWR sky130_fd_sc_hd__diode_2
XFILLER_9_66 VGND VPWR sky130_fd_sc_hd__fill_1
XANTENNA_clkbuf_2_1_0_prog_clk_A clkbuf_2_1_0_prog_clk/A VGND VPWR sky130_fd_sc_hd__diode_2
Xmem_right_track_0.sc_dff_compact_5_.sky130_fd_sc_hd__dfrbp_1 mem_right_track_0.sc_dff_compact_4_.sky130_fd_sc_hd__dfrbp_1/Q
+ mem_right_track_0.sc_dff_compact_5_.sky130_fd_sc_hd__dfrbp_1/Q mem_right_track_0.sc_dff_compact_5_.sky130_fd_sc_hd__dfrbp_1/Q_N
+ _01_/Y mem_right_track_0.sc_dff_compact_5_.sky130_fd_sc_hd__dfrbp_1/CLK VGND VPWR
+ sky130_fd_sc_hd__dfrbp_1
Xclkbuf_3_4_0_prog_clk clkbuf_3_5_0_prog_clk/A clkbuf_3_4_0_prog_clk/X VGND VPWR sky130_fd_sc_hd__clkbuf_1
XFILLER_22_7 VGND VPWR sky130_fd_sc_hd__fill_2
XFILLER_18_97 VGND VPWR sky130_fd_sc_hd__decap_4
Xmem_top_track_16.sc_dff_compact_0_.sky130_fd_sc_hd__dfrbp_1 mem_top_track_8.sc_dff_compact_7_.sky130_fd_sc_hd__dfrbp_1/Q
+ mem_top_track_16.sc_dff_compact_0_.sky130_fd_sc_hd__dfrbp_1/Q mem_top_track_16.sc_dff_compact_0_.sky130_fd_sc_hd__dfrbp_1/Q_N
+ _01_/Y clkbuf_3_7_0_prog_clk/X VGND VPWR sky130_fd_sc_hd__dfrbp_1
XANTENNA_mem_top_track_8.sc_dff_compact_7_.sky130_fd_sc_hd__dfrbp_1_D mem_top_track_8.sc_dff_compact_6_.sky130_fd_sc_hd__dfrbp_1/Q
+ VGND VPWR sky130_fd_sc_hd__diode_2
XFILLER_20_87 VGND VPWR sky130_fd_sc_hd__fill_2
XFILLER_20_43 VGND VPWR sky130_fd_sc_hd__fill_2
XFILLER_20_10 VGND VPWR sky130_fd_sc_hd__fill_2
Xmem_right_track_16.sc_dff_compact_0_.sky130_fd_sc_hd__dfrbp_1 mem_right_track_8.sc_dff_compact_7_.sky130_fd_sc_hd__dfrbp_1/Q
+ mem_right_track_16.sc_dff_compact_0_.sky130_fd_sc_hd__dfrbp_1/Q mem_right_track_16.sc_dff_compact_0_.sky130_fd_sc_hd__dfrbp_1/Q_N
+ _01_/Y clkbuf_3_6_0_prog_clk/X VGND VPWR sky130_fd_sc_hd__dfrbp_1
XFILLER_6_78 VGND VPWR sky130_fd_sc_hd__fill_2
XFILLER_6_89 VGND VPWR sky130_fd_sc_hd__decap_3
XFILLER_13_3 VGND VPWR sky130_fd_sc_hd__fill_1
XFILLER_17_109 VGND VPWR sky130_fd_sc_hd__decap_4
Xmem_bottom_track_17.sc_dff_compact_2_.sky130_fd_sc_hd__dfrbp_1 mem_bottom_track_17.sc_dff_compact_1_.sky130_fd_sc_hd__dfrbp_1/Q
+ mem_bottom_track_17.sc_dff_compact_3_.sky130_fd_sc_hd__dfrbp_1/D mem_bottom_track_17.sc_dff_compact_2_.sky130_fd_sc_hd__dfrbp_1/Q_N
+ _01_/Y mem_bottom_track_17.sc_dff_compact_2_.sky130_fd_sc_hd__dfrbp_1/CLK VGND VPWR
+ sky130_fd_sc_hd__dfrbp_1
XFILLER_22_101 VGND VPWR sky130_fd_sc_hd__fill_2
XANTENNA_mem_left_track_17.sc_dff_compact_0_.sky130_fd_sc_hd__dfrbp_1_RESET_B _01_/Y
+ VGND VPWR sky130_fd_sc_hd__diode_2
XANTENNA_mem_left_track_9.sc_dff_compact_5_.sky130_fd_sc_hd__dfrbp_1_CLK clkbuf_3_5_0_prog_clk/X
+ VGND VPWR sky130_fd_sc_hd__diode_2
XANTENNA_mem_right_track_8.sc_dff_compact_6_.sky130_fd_sc_hd__dfrbp_1_D mem_right_track_8.sc_dff_compact_6_.sky130_fd_sc_hd__dfrbp_1/D
+ VGND VPWR sky130_fd_sc_hd__diode_2
XFILLER_3_57 VGND VPWR sky130_fd_sc_hd__fill_2
XFILLER_13_123 VGND VPWR sky130_fd_sc_hd__fill_2
XANTENNA_mem_left_track_9.sc_dff_compact_5_.sky130_fd_sc_hd__dfrbp_1_D mem_left_track_9.sc_dff_compact_4_.sky130_fd_sc_hd__dfrbp_1/Q
+ VGND VPWR sky130_fd_sc_hd__diode_2
XFILLER_6_108 VGND VPWR sky130_fd_sc_hd__fill_2
XFILLER_23_32 VGND VPWR sky130_fd_sc_hd__fill_2
XANTENNA_mem_bottom_track_17.sc_dff_compact_4_.sky130_fd_sc_hd__dfrbp_1_RESET_B _01_/Y
+ VGND VPWR sky130_fd_sc_hd__diode_2
XANTENNA_mem_left_track_17.sc_dff_compact_2_.sky130_fd_sc_hd__dfrbp_1_D mem_left_track_17.sc_dff_compact_1_.sky130_fd_sc_hd__dfrbp_1/Q
+ VGND VPWR sky130_fd_sc_hd__diode_2
XANTENNA_mem_right_track_0.sc_dff_compact_2_.sky130_fd_sc_hd__dfrbp_1_CLK clkbuf_3_7_0_prog_clk/X
+ VGND VPWR sky130_fd_sc_hd__diode_2
XFILLER_18_65 VGND VPWR sky130_fd_sc_hd__fill_2
XFILLER_18_32 VGND VPWR sky130_fd_sc_hd__fill_2
XFILLER_20_55 VGND VPWR sky130_fd_sc_hd__fill_1
XFILLER_20_22 VGND VPWR sky130_fd_sc_hd__fill_2
XFILLER_15_66 VGND VPWR sky130_fd_sc_hd__fill_2
XANTENNA_mem_right_track_0.sc_dff_compact_3_.sky130_fd_sc_hd__dfrbp_1_RESET_B _01_/Y
+ VGND VPWR sky130_fd_sc_hd__diode_2
Xmem_left_track_9.sc_dff_compact_4_.sky130_fd_sc_hd__dfrbp_1 mem_left_track_9.sc_dff_compact_3_.sky130_fd_sc_hd__dfrbp_1/Q
+ mem_left_track_9.sc_dff_compact_4_.sky130_fd_sc_hd__dfrbp_1/Q mem_left_track_9.sc_dff_compact_4_.sky130_fd_sc_hd__dfrbp_1/Q_N
+ _01_/Y mem_left_track_9.sc_dff_compact_4_.sky130_fd_sc_hd__dfrbp_1/CLK VGND VPWR
+ sky130_fd_sc_hd__dfrbp_1
XANTENNA_mem_bottom_track_9.sc_dff_compact_0_.sky130_fd_sc_hd__dfrbp_1_RESET_B _01_/Y
+ VGND VPWR sky130_fd_sc_hd__diode_2
XFILLER_13_135 VGND VPWR sky130_fd_sc_hd__fill_2
XFILLER_9_128 VGND VPWR sky130_fd_sc_hd__fill_2
XANTENNA_mem_bottom_track_1.sc_dff_compact_6_.sky130_fd_sc_hd__dfrbp_1_RESET_B _01_/Y
+ VGND VPWR sky130_fd_sc_hd__diode_2
XANTENNA_mem_left_track_17.sc_dff_compact_5_.sky130_fd_sc_hd__dfrbp_1_D mem_left_track_17.sc_dff_compact_4_.sky130_fd_sc_hd__dfrbp_1/Q
+ VGND VPWR sky130_fd_sc_hd__diode_2
XANTENNA_mem_top_track_8.sc_dff_compact_3_.sky130_fd_sc_hd__dfrbp_1_RESET_B _01_/Y
+ VGND VPWR sky130_fd_sc_hd__diode_2
XANTENNA__01__A pReset VGND VPWR sky130_fd_sc_hd__diode_2
XFILLER_12_78 VGND VPWR sky130_fd_sc_hd__fill_2
XFILLER_12_89 VGND VPWR sky130_fd_sc_hd__decap_3
Xmem_right_track_8.sc_dff_compact_1_.sky130_fd_sc_hd__dfrbp_1 mem_right_track_8.sc_dff_compact_0_.sky130_fd_sc_hd__dfrbp_1/Q
+ mem_right_track_8.sc_dff_compact_1_.sky130_fd_sc_hd__dfrbp_1/Q mem_right_track_8.sc_dff_compact_1_.sky130_fd_sc_hd__dfrbp_1/Q_N
+ _01_/Y mem_right_track_8.sc_dff_compact_1_.sky130_fd_sc_hd__dfrbp_1/CLK VGND VPWR
+ sky130_fd_sc_hd__dfrbp_1
XANTENNA_mem_left_track_9.sc_dff_compact_3_.sky130_fd_sc_hd__dfrbp_1_RESET_B _01_/Y
+ VGND VPWR sky130_fd_sc_hd__diode_2
XFILLER_4_90 VGND VPWR sky130_fd_sc_hd__fill_2
XFILLER_23_44 VGND VPWR sky130_fd_sc_hd__fill_2
XFILLER_0_59 VGND VPWR sky130_fd_sc_hd__decap_3
XFILLER_0_26 VGND VPWR sky130_fd_sc_hd__fill_1
XANTENNA_mem_right_track_16.sc_dff_compact_0_.sky130_fd_sc_hd__dfrbp_1_RESET_B _01_/Y
+ VGND VPWR sky130_fd_sc_hd__diode_2
XFILLER_9_57 VGND VPWR sky130_fd_sc_hd__fill_2
XANTENNA_mem_right_track_8.sc_dff_compact_7_.sky130_fd_sc_hd__dfrbp_1_RESET_B _01_/Y
+ VGND VPWR sky130_fd_sc_hd__diode_2
XFILLER_18_77 VGND VPWR sky130_fd_sc_hd__fill_2
Xmem_left_track_1.sc_dff_compact_1_.sky130_fd_sc_hd__dfrbp_1 mem_left_track_1.sc_dff_compact_1_.sky130_fd_sc_hd__dfrbp_1/D
+ mem_left_track_1.sc_dff_compact_2_.sky130_fd_sc_hd__dfrbp_1/D mem_left_track_1.sc_dff_compact_1_.sky130_fd_sc_hd__dfrbp_1/Q_N
+ _01_/Y mem_left_track_1.sc_dff_compact_1_.sky130_fd_sc_hd__dfrbp_1/CLK VGND VPWR
+ sky130_fd_sc_hd__dfrbp_1
XANTENNA_clkbuf_1_0_0_prog_clk_A clkbuf_0_prog_clk/X VGND VPWR sky130_fd_sc_hd__diode_2
Xmem_top_track_0.sc_dff_compact_5_.sky130_fd_sc_hd__dfrbp_1 mem_top_track_0.sc_dff_compact_5_.sky130_fd_sc_hd__dfrbp_1/D
+ mem_top_track_0.sc_dff_compact_5_.sky130_fd_sc_hd__dfrbp_1/Q mem_top_track_0.sc_dff_compact_5_.sky130_fd_sc_hd__dfrbp_1/Q_N
+ _01_/Y mem_top_track_0.sc_dff_compact_5_.sky130_fd_sc_hd__dfrbp_1/CLK VGND VPWR
+ sky130_fd_sc_hd__dfrbp_1
XFILLER_19_141 VGND VPWR sky130_fd_sc_hd__decap_8
XFILLER_15_78 VGND VPWR sky130_fd_sc_hd__fill_1
Xclkbuf_2_1_0_prog_clk clkbuf_2_1_0_prog_clk/A clkbuf_3_3_0_prog_clk/A VGND VPWR sky130_fd_sc_hd__clkbuf_1
XANTENNA_mem_right_track_16.sc_dff_compact_1_.sky130_fd_sc_hd__dfrbp_1_D mem_right_track_16.sc_dff_compact_0_.sky130_fd_sc_hd__dfrbp_1/Q
+ VGND VPWR sky130_fd_sc_hd__diode_2
XFILLER_13_147 VGND VPWR sky130_fd_sc_hd__fill_2
XFILLER_9_118 VGND VPWR sky130_fd_sc_hd__fill_2
XFILLER_13_103 VGND VPWR sky130_fd_sc_hd__fill_2
XFILLER_10_139 VGND VPWR sky130_fd_sc_hd__fill_2
XFILLER_23_89 VGND VPWR sky130_fd_sc_hd__fill_2
XANTENNA_mem_top_track_0.sc_dff_compact_1_.sky130_fd_sc_hd__dfrbp_1_D mem_top_track_0.sc_dff_compact_1_.sky130_fd_sc_hd__dfrbp_1/D
+ VGND VPWR sky130_fd_sc_hd__diode_2
XANTENNA_mem_left_track_17.sc_dff_compact_1_.sky130_fd_sc_hd__dfrbp_1_CLK clkbuf_3_5_0_prog_clk/X
+ VGND VPWR sky130_fd_sc_hd__diode_2
XANTENNA_mem_bottom_track_1.sc_dff_compact_3_.sky130_fd_sc_hd__dfrbp_1_CLK clkbuf_3_3_0_prog_clk/X
+ VGND VPWR sky130_fd_sc_hd__diode_2
X_29_ chany_top_in[2] chany_bottom_out[3] VGND VPWR sky130_fd_sc_hd__buf_2
XFILLER_20_79 VGND VPWR sky130_fd_sc_hd__fill_2
XFILLER_20_35 VGND VPWR sky130_fd_sc_hd__fill_2
XANTENNA_mem_right_track_16.sc_dff_compact_4_.sky130_fd_sc_hd__dfrbp_1_D mem_right_track_16.sc_dff_compact_4_.sky130_fd_sc_hd__dfrbp_1/D
+ VGND VPWR sky130_fd_sc_hd__diode_2
Xmem_bottom_track_9.sc_dff_compact_7_.sky130_fd_sc_hd__dfrbp_1 mem_bottom_track_9.sc_dff_compact_6_.sky130_fd_sc_hd__dfrbp_1/Q
+ mem_bottom_track_9.sc_dff_compact_7_.sky130_fd_sc_hd__dfrbp_1/Q mem_bottom_track_9.sc_dff_compact_7_.sky130_fd_sc_hd__dfrbp_1/Q_N
+ _01_/Y clkbuf_3_4_0_prog_clk/X VGND VPWR sky130_fd_sc_hd__dfrbp_1
Xclkbuf_3_3_0_prog_clk clkbuf_3_3_0_prog_clk/A clkbuf_3_3_0_prog_clk/X VGND VPWR sky130_fd_sc_hd__clkbuf_1
XFILLER_20_7 VGND VPWR sky130_fd_sc_hd__fill_1
XANTENNA_mem_right_track_0.sc_dff_compact_0_.sky130_fd_sc_hd__dfrbp_1_D mem_top_track_16.sc_dff_compact_5_.sky130_fd_sc_hd__dfrbp_1/Q
+ VGND VPWR sky130_fd_sc_hd__diode_2
XANTENNA_mem_bottom_track_17.sc_dff_compact_0_.sky130_fd_sc_hd__dfrbp_1_D mem_bottom_track_9.sc_dff_compact_7_.sky130_fd_sc_hd__dfrbp_1/Q
+ VGND VPWR sky130_fd_sc_hd__diode_2
XANTENNA__20__A chanx_left_in[6] VGND VPWR sky130_fd_sc_hd__diode_2
XFILLER_15_57 VGND VPWR sky130_fd_sc_hd__fill_2
XFILLER_16_145 VGND VPWR sky130_fd_sc_hd__fill_2
XFILLER_16_101 VGND VPWR sky130_fd_sc_hd__fill_2
XFILLER_11_3 VGND VPWR sky130_fd_sc_hd__fill_2
XFILLER_13_115 VGND VPWR sky130_fd_sc_hd__fill_2
XANTENNA_mem_top_track_0.sc_dff_compact_4_.sky130_fd_sc_hd__dfrbp_1_D mem_top_track_0.sc_dff_compact_3_.sky130_fd_sc_hd__dfrbp_1/Q
+ VGND VPWR sky130_fd_sc_hd__diode_2
XANTENNA__15__A chanx_right_in[5] VGND VPWR sky130_fd_sc_hd__diode_2
XFILLER_3_49 VGND VPWR sky130_fd_sc_hd__fill_1
XFILLER_8_141 VGND VPWR sky130_fd_sc_hd__fill_2
XANTENNA_mem_top_track_8.sc_dff_compact_4_.sky130_fd_sc_hd__dfrbp_1_CLK clkbuf_3_3_0_prog_clk/X
+ VGND VPWR sky130_fd_sc_hd__diode_2
XFILLER_23_57 VGND VPWR sky130_fd_sc_hd__fill_2
Xmem_bottom_track_1.sc_dff_compact_4_.sky130_fd_sc_hd__dfrbp_1 mem_bottom_track_1.sc_dff_compact_4_.sky130_fd_sc_hd__dfrbp_1/D
+ mem_bottom_track_1.sc_dff_compact_5_.sky130_fd_sc_hd__dfrbp_1/D mem_bottom_track_1.sc_dff_compact_4_.sky130_fd_sc_hd__dfrbp_1/Q_N
+ _01_/Y mem_bottom_track_1.sc_dff_compact_4_.sky130_fd_sc_hd__dfrbp_1/CLK VGND VPWR
+ sky130_fd_sc_hd__dfrbp_1
XFILLER_2_147 VGND VPWR sky130_fd_sc_hd__fill_2
Xmem_top_track_8.sc_dff_compact_1_.sky130_fd_sc_hd__dfrbp_1 mem_top_track_8.sc_dff_compact_0_.sky130_fd_sc_hd__dfrbp_1/Q
+ mem_top_track_8.sc_dff_compact_2_.sky130_fd_sc_hd__dfrbp_1/D mem_top_track_8.sc_dff_compact_1_.sky130_fd_sc_hd__dfrbp_1/Q_N
+ _01_/Y mem_top_track_8.sc_dff_compact_1_.sky130_fd_sc_hd__dfrbp_1/CLK VGND VPWR
+ sky130_fd_sc_hd__dfrbp_1
XANTENNA_mem_right_track_0.sc_dff_compact_3_.sky130_fd_sc_hd__dfrbp_1_D mem_right_track_0.sc_dff_compact_3_.sky130_fd_sc_hd__dfrbp_1/D
+ VGND VPWR sky130_fd_sc_hd__diode_2
XANTENNA_mem_bottom_track_17.sc_dff_compact_3_.sky130_fd_sc_hd__dfrbp_1_D mem_bottom_track_17.sc_dff_compact_3_.sky130_fd_sc_hd__dfrbp_1/D
+ VGND VPWR sky130_fd_sc_hd__diode_2
XANTENNA_mem_right_track_16.sc_dff_compact_3_.sky130_fd_sc_hd__dfrbp_1_CLK clkbuf_3_6_0_prog_clk/X
+ VGND VPWR sky130_fd_sc_hd__diode_2
XANTENNA_mem_left_track_1.sc_dff_compact_2_.sky130_fd_sc_hd__dfrbp_1_D mem_left_track_1.sc_dff_compact_2_.sky130_fd_sc_hd__dfrbp_1/D
+ VGND VPWR sky130_fd_sc_hd__diode_2
XANTENNA__23__A chanx_left_in[2] VGND VPWR sky130_fd_sc_hd__diode_2
XANTENNA_mem_left_track_17.sc_dff_compact_1_.sky130_fd_sc_hd__dfrbp_1_RESET_B _01_/Y
+ VGND VPWR sky130_fd_sc_hd__diode_2
X_28_ chany_top_in[4] chany_bottom_out[5] VGND VPWR sky130_fd_sc_hd__buf_2
XFILLER_20_47 VGND VPWR sky130_fd_sc_hd__fill_2
XFILLER_20_14 VGND VPWR sky130_fd_sc_hd__fill_2
Xmem_top_track_16.sc_dff_compact_3_.sky130_fd_sc_hd__dfrbp_1 mem_top_track_16.sc_dff_compact_2_.sky130_fd_sc_hd__dfrbp_1/Q
+ mem_top_track_16.sc_dff_compact_4_.sky130_fd_sc_hd__dfrbp_1/D mem_top_track_16.sc_dff_compact_3_.sky130_fd_sc_hd__dfrbp_1/Q_N
+ _01_/Y mem_top_track_16.sc_dff_compact_3_.sky130_fd_sc_hd__dfrbp_1/CLK VGND VPWR
+ sky130_fd_sc_hd__dfrbp_1
XANTENNA__18__A chanx_right_in[1] VGND VPWR sky130_fd_sc_hd__diode_2
XFILLER_19_110 VGND VPWR sky130_fd_sc_hd__fill_2
XANTENNA_mem_top_track_0.sc_dff_compact_7_.sky130_fd_sc_hd__dfrbp_1_D mem_top_track_0.sc_dff_compact_7_.sky130_fd_sc_hd__dfrbp_1/D
+ VGND VPWR sky130_fd_sc_hd__diode_2
Xmem_right_track_16.sc_dff_compact_3_.sky130_fd_sc_hd__dfrbp_1 mem_right_track_16.sc_dff_compact_3_.sky130_fd_sc_hd__dfrbp_1/D
+ mem_right_track_16.sc_dff_compact_4_.sky130_fd_sc_hd__dfrbp_1/D mem_right_track_16.sc_dff_compact_3_.sky130_fd_sc_hd__dfrbp_1/Q_N
+ _01_/Y clkbuf_3_6_0_prog_clk/X VGND VPWR sky130_fd_sc_hd__dfrbp_1
XFILLER_16_113 VGND VPWR sky130_fd_sc_hd__fill_1
Xmem_bottom_track_17.sc_dff_compact_5_.sky130_fd_sc_hd__dfrbp_1 mem_bottom_track_17.sc_dff_compact_4_.sky130_fd_sc_hd__dfrbp_1/Q
+ mem_left_track_1.sc_dff_compact_0_.sky130_fd_sc_hd__dfrbp_1/D mem_bottom_track_17.sc_dff_compact_5_.sky130_fd_sc_hd__dfrbp_1/Q_N
+ _01_/Y clkbuf_3_6_0_prog_clk/X VGND VPWR sky130_fd_sc_hd__dfrbp_1
XFILLER_22_105 VGND VPWR sky130_fd_sc_hd__decap_3
XANTENNA_mem_bottom_track_17.sc_dff_compact_5_.sky130_fd_sc_hd__dfrbp_1_RESET_B _01_/Y
+ VGND VPWR sky130_fd_sc_hd__diode_2
XFILLER_13_127 VGND VPWR sky130_fd_sc_hd__fill_2
XANTENNA__31__A chany_top_in[0] VGND VPWR sky130_fd_sc_hd__diode_2
XANTENNA_mem_bottom_track_9.sc_dff_compact_3_.sky130_fd_sc_hd__dfrbp_1_CLK clkbuf_3_4_0_prog_clk/X
+ VGND VPWR sky130_fd_sc_hd__diode_2
XANTENNA_mem_right_track_0.sc_dff_compact_6_.sky130_fd_sc_hd__dfrbp_1_D mem_right_track_0.sc_dff_compact_5_.sky130_fd_sc_hd__dfrbp_1/Q
+ VGND VPWR sky130_fd_sc_hd__diode_2
XANTENNA__26__A chany_top_in[6] VGND VPWR sky130_fd_sc_hd__diode_2
XFILLER_12_26 VGND VPWR sky130_fd_sc_hd__fill_2
XANTENNA_mem_top_track_0.sc_dff_compact_0_.sky130_fd_sc_hd__dfrbp_1_RESET_B _01_/Y
+ VGND VPWR sky130_fd_sc_hd__diode_2
XANTENNA_mem_left_track_1.sc_dff_compact_5_.sky130_fd_sc_hd__dfrbp_1_D mem_left_track_1.sc_dff_compact_5_.sky130_fd_sc_hd__dfrbp_1/D
+ VGND VPWR sky130_fd_sc_hd__diode_2
XFILLER_23_36 VGND VPWR sky130_fd_sc_hd__fill_2
XANTENNA_mem_top_track_16.sc_dff_compact_2_.sky130_fd_sc_hd__dfrbp_1_CLK clkbuf_3_1_0_prog_clk/X
+ VGND VPWR sky130_fd_sc_hd__diode_2
XANTENNA_mem_left_track_1.sc_dff_compact_0_.sky130_fd_sc_hd__dfrbp_1_RESET_B _01_/Y
+ VGND VPWR sky130_fd_sc_hd__diode_2
XANTENNA_clkbuf_3_3_0_prog_clk_A clkbuf_3_3_0_prog_clk/A VGND VPWR sky130_fd_sc_hd__diode_2
XFILLER_18_69 VGND VPWR sky130_fd_sc_hd__fill_2
XFILLER_18_36 VGND VPWR sky130_fd_sc_hd__fill_2
XANTENNA_mem_right_track_0.sc_dff_compact_4_.sky130_fd_sc_hd__dfrbp_1_RESET_B _01_/Y
+ VGND VPWR sky130_fd_sc_hd__diode_2
X_27_ chany_top_in[5] chany_bottom_out[6] VGND VPWR sky130_fd_sc_hd__buf_2
Xmem_left_track_17.sc_dff_compact_1_.sky130_fd_sc_hd__dfrbp_1 mem_left_track_17.sc_dff_compact_0_.sky130_fd_sc_hd__dfrbp_1/Q
+ mem_left_track_17.sc_dff_compact_1_.sky130_fd_sc_hd__dfrbp_1/Q mem_left_track_17.sc_dff_compact_1_.sky130_fd_sc_hd__dfrbp_1/Q_N
+ _01_/Y clkbuf_3_5_0_prog_clk/X VGND VPWR sky130_fd_sc_hd__dfrbp_1
XANTENNA_mem_bottom_track_9.sc_dff_compact_1_.sky130_fd_sc_hd__dfrbp_1_RESET_B _01_/Y
+ VGND VPWR sky130_fd_sc_hd__diode_2
XFILLER_20_26 VGND VPWR sky130_fd_sc_hd__fill_1
XFILLER_19_133 VGND VPWR sky130_fd_sc_hd__fill_2
XANTENNA_mem_bottom_track_1.sc_dff_compact_7_.sky130_fd_sc_hd__dfrbp_1_RESET_B _01_/Y
+ VGND VPWR sky130_fd_sc_hd__diode_2
XANTENNA__34__A chany_bottom_in[4] VGND VPWR sky130_fd_sc_hd__diode_2
XANTENNA_mem_top_track_8.sc_dff_compact_4_.sky130_fd_sc_hd__dfrbp_1_RESET_B _01_/Y
+ VGND VPWR sky130_fd_sc_hd__diode_2
XANTENNA__29__A chany_top_in[2] VGND VPWR sky130_fd_sc_hd__diode_2
XPHY_0 VGND VPWR sky130_fd_sc_hd__decap_3
XANTENNA_mem_left_track_9.sc_dff_compact_4_.sky130_fd_sc_hd__dfrbp_1_RESET_B _01_/Y
+ VGND VPWR sky130_fd_sc_hd__diode_2
XFILLER_13_139 VGND VPWR sky130_fd_sc_hd__fill_2
Xmem_bottom_track_9.sc_dff_compact_0_.sky130_fd_sc_hd__dfrbp_1 mem_bottom_track_1.sc_dff_compact_7_.sky130_fd_sc_hd__dfrbp_1/Q
+ mem_bottom_track_9.sc_dff_compact_1_.sky130_fd_sc_hd__dfrbp_1/D mem_bottom_track_9.sc_dff_compact_0_.sky130_fd_sc_hd__dfrbp_1/Q_N
+ _01_/Y clkbuf_3_1_0_prog_clk/X VGND VPWR sky130_fd_sc_hd__dfrbp_1
XANTENNA_mem_right_track_16.sc_dff_compact_1_.sky130_fd_sc_hd__dfrbp_1_RESET_B _01_/Y
+ VGND VPWR sky130_fd_sc_hd__diode_2
Xmem_left_track_9.sc_dff_compact_7_.sky130_fd_sc_hd__dfrbp_1 mem_left_track_9.sc_dff_compact_6_.sky130_fd_sc_hd__dfrbp_1/Q
+ mem_left_track_9.sc_dff_compact_7_.sky130_fd_sc_hd__dfrbp_1/Q mem_left_track_9.sc_dff_compact_7_.sky130_fd_sc_hd__dfrbp_1/Q_N
+ _01_/Y mem_left_track_9.sc_dff_compact_7_.sky130_fd_sc_hd__dfrbp_1/CLK VGND VPWR
+ sky130_fd_sc_hd__dfrbp_1
Xclkbuf_2_0_0_prog_clk clkbuf_2_1_0_prog_clk/A clkbuf_3_1_0_prog_clk/A VGND VPWR sky130_fd_sc_hd__clkbuf_1
XFILLER_5_146 VGND VPWR sky130_fd_sc_hd__decap_3
XFILLER_23_48 VGND VPWR sky130_fd_sc_hd__fill_2
XFILLER_4_83 VGND VPWR sky130_fd_sc_hd__decap_4
XFILLER_4_72 VGND VPWR sky130_fd_sc_hd__fill_2
Xmem_right_track_8.sc_dff_compact_4_.sky130_fd_sc_hd__dfrbp_1 mem_right_track_8.sc_dff_compact_3_.sky130_fd_sc_hd__dfrbp_1/Q
+ mem_right_track_8.sc_dff_compact_5_.sky130_fd_sc_hd__dfrbp_1/D mem_right_track_8.sc_dff_compact_4_.sky130_fd_sc_hd__dfrbp_1/Q_N
+ _01_/Y clkbuf_3_6_0_prog_clk/X VGND VPWR sky130_fd_sc_hd__dfrbp_1
XANTENNA_mem_top_track_16.sc_dff_compact_1_.sky130_fd_sc_hd__dfrbp_1_D mem_top_track_16.sc_dff_compact_0_.sky130_fd_sc_hd__dfrbp_1/Q
+ VGND VPWR sky130_fd_sc_hd__diode_2
XANTENNA__37__A chany_bottom_in[0] VGND VPWR sky130_fd_sc_hd__diode_2
XFILLER_18_26 VGND VPWR sky130_fd_sc_hd__fill_2
XFILLER_24_91 VGND VPWR sky130_fd_sc_hd__fill_2
X_26_ chany_top_in[6] chany_bottom_out[7] VGND VPWR sky130_fd_sc_hd__buf_2
XFILLER_19_123 VGND VPWR sky130_fd_sc_hd__fill_2
Xmem_left_track_1.sc_dff_compact_4_.sky130_fd_sc_hd__dfrbp_1 mem_left_track_1.sc_dff_compact_3_.sky130_fd_sc_hd__dfrbp_1/Q
+ mem_left_track_1.sc_dff_compact_5_.sky130_fd_sc_hd__dfrbp_1/D mem_left_track_1.sc_dff_compact_4_.sky130_fd_sc_hd__dfrbp_1/Q_N
+ _01_/Y mem_left_track_1.sc_dff_compact_4_.sky130_fd_sc_hd__dfrbp_1/CLK VGND VPWR
+ sky130_fd_sc_hd__dfrbp_1
X_09_ _09_/HI chany_top_out[4] VGND VPWR sky130_fd_sc_hd__conb_1
XFILLER_16_137 VGND VPWR sky130_fd_sc_hd__fill_2
XPHY_1 VGND VPWR sky130_fd_sc_hd__decap_3
Xmem_right_track_0.sc_dff_compact_1_.sky130_fd_sc_hd__dfrbp_1 mem_right_track_0.sc_dff_compact_1_.sky130_fd_sc_hd__dfrbp_1/D
+ mem_right_track_0.sc_dff_compact_1_.sky130_fd_sc_hd__dfrbp_1/Q mem_right_track_0.sc_dff_compact_1_.sky130_fd_sc_hd__dfrbp_1/Q_N
+ _01_/Y mem_right_track_0.sc_dff_compact_1_.sky130_fd_sc_hd__dfrbp_1/CLK VGND VPWR
+ sky130_fd_sc_hd__dfrbp_1
XANTENNA_mem_top_track_16.sc_dff_compact_4_.sky130_fd_sc_hd__dfrbp_1_D mem_top_track_16.sc_dff_compact_4_.sky130_fd_sc_hd__dfrbp_1/D
+ VGND VPWR sky130_fd_sc_hd__diode_2
Xclkbuf_3_2_0_prog_clk clkbuf_3_3_0_prog_clk/A clkbuf_3_2_0_prog_clk/X VGND VPWR sky130_fd_sc_hd__clkbuf_1
XFILLER_13_107 VGND VPWR sky130_fd_sc_hd__fill_2
XFILLER_12_140 VGND VPWR sky130_fd_sc_hd__fill_2
XFILLER_5_114 VGND VPWR sky130_fd_sc_hd__fill_2
XANTENNA_mem_bottom_track_9.sc_dff_compact_1_.sky130_fd_sc_hd__dfrbp_1_D mem_bottom_track_9.sc_dff_compact_1_.sky130_fd_sc_hd__dfrbp_1/D
+ VGND VPWR sky130_fd_sc_hd__diode_2
XFILLER_20_39 VGND VPWR sky130_fd_sc_hd__fill_2
X_25_ chanx_left_in[0] chanx_right_out[1] VGND VPWR sky130_fd_sc_hd__buf_2
XANTENNA_clkbuf_2_2_0_prog_clk_A clkbuf_2_3_0_prog_clk/A VGND VPWR sky130_fd_sc_hd__diode_2
X_08_ _08_/HI chany_top_out[8] VGND VPWR sky130_fd_sc_hd__conb_1
XFILLER_19_70 VGND VPWR sky130_fd_sc_hd__fill_2
XPHY_100 VGND VPWR sky130_fd_sc_hd__tapvpwrvgnd_1
XFILLER_16_105 VGND VPWR sky130_fd_sc_hd__fill_2
XFILLER_21_60 VGND VPWR sky130_fd_sc_hd__fill_1
XPHY_2 VGND VPWR sky130_fd_sc_hd__decap_3
XANTENNA_mem_bottom_track_9.sc_dff_compact_4_.sky130_fd_sc_hd__dfrbp_1_D mem_bottom_track_9.sc_dff_compact_4_.sky130_fd_sc_hd__dfrbp_1/D
+ VGND VPWR sky130_fd_sc_hd__diode_2
XFILLER_7_51 VGND VPWR sky130_fd_sc_hd__decap_4
XFILLER_7_62 VGND VPWR sky130_fd_sc_hd__fill_2
XFILLER_7_73 VGND VPWR sky130_fd_sc_hd__decap_4
XFILLER_13_119 VGND VPWR sky130_fd_sc_hd__decap_3
XFILLER_16_93 VGND VPWR sky130_fd_sc_hd__fill_2
XFILLER_8_145 VGND VPWR sky130_fd_sc_hd__fill_2
XANTENNA_mem_left_track_17.sc_dff_compact_2_.sky130_fd_sc_hd__dfrbp_1_RESET_B _01_/Y
+ VGND VPWR sky130_fd_sc_hd__diode_2
XFILLER_4_41 VGND VPWR sky130_fd_sc_hd__fill_2
XFILLER_4_30 VGND VPWR sky130_fd_sc_hd__fill_1
XFILLER_23_28 VGND VPWR sky130_fd_sc_hd__fill_2
XFILLER_13_50 VGND VPWR sky130_fd_sc_hd__fill_2
Xmem_bottom_track_1.sc_dff_compact_7_.sky130_fd_sc_hd__dfrbp_1 mem_bottom_track_1.sc_dff_compact_7_.sky130_fd_sc_hd__dfrbp_1/D
+ mem_bottom_track_1.sc_dff_compact_7_.sky130_fd_sc_hd__dfrbp_1/Q mem_bottom_track_1.sc_dff_compact_7_.sky130_fd_sc_hd__dfrbp_1/Q_N
+ _01_/Y clkbuf_3_4_0_prog_clk/X VGND VPWR sky130_fd_sc_hd__dfrbp_1
Xmem_left_track_9.sc_dff_compact_0_.sky130_fd_sc_hd__dfrbp_1 mem_left_track_9.sc_dff_compact_0_.sky130_fd_sc_hd__dfrbp_1/D
+ mem_left_track_9.sc_dff_compact_1_.sky130_fd_sc_hd__dfrbp_1/D mem_left_track_9.sc_dff_compact_0_.sky130_fd_sc_hd__dfrbp_1/Q_N
+ _01_/Y mem_left_track_9.sc_dff_compact_0_.sky130_fd_sc_hd__dfrbp_1/CLK VGND VPWR
+ sky130_fd_sc_hd__dfrbp_1
Xmem_top_track_8.sc_dff_compact_4_.sky130_fd_sc_hd__dfrbp_1 mem_top_track_8.sc_dff_compact_4_.sky130_fd_sc_hd__dfrbp_1/D
+ mem_top_track_8.sc_dff_compact_5_.sky130_fd_sc_hd__dfrbp_1/D mem_top_track_8.sc_dff_compact_4_.sky130_fd_sc_hd__dfrbp_1/Q_N
+ _01_/Y clkbuf_3_3_0_prog_clk/X VGND VPWR sky130_fd_sc_hd__dfrbp_1
XFILLER_24_71 VGND VPWR sky130_fd_sc_hd__fill_2
XFILLER_24_60 VGND VPWR sky130_fd_sc_hd__fill_2
XFILLER_20_18 VGND VPWR sky130_fd_sc_hd__fill_2
X_24_ chanx_left_in[1] chanx_right_out[2] VGND VPWR sky130_fd_sc_hd__buf_2
XANTENNA_mem_bottom_track_9.sc_dff_compact_7_.sky130_fd_sc_hd__dfrbp_1_D mem_bottom_track_9.sc_dff_compact_6_.sky130_fd_sc_hd__dfrbp_1/Q
+ VGND VPWR sky130_fd_sc_hd__diode_2
XFILLER_19_114 VGND VPWR sky130_fd_sc_hd__fill_2
XFILLER_10_84 VGND VPWR sky130_fd_sc_hd__fill_2
X_07_ _07_/HI chanx_left_out[0] VGND VPWR sky130_fd_sc_hd__conb_1
XPHY_101 VGND VPWR sky130_fd_sc_hd__tapvpwrvgnd_1
XANTENNA_mem_top_track_0.sc_dff_compact_1_.sky130_fd_sc_hd__dfrbp_1_RESET_B _01_/Y
+ VGND VPWR sky130_fd_sc_hd__diode_2
XFILLER_21_72 VGND VPWR sky130_fd_sc_hd__fill_2
XPHY_3 VGND VPWR sky130_fd_sc_hd__decap_3
XANTENNA_mem_left_track_1.sc_dff_compact_1_.sky130_fd_sc_hd__dfrbp_1_RESET_B _01_/Y
+ VGND VPWR sky130_fd_sc_hd__diode_2
Xmem_top_track_0.sc_dff_compact_1_.sky130_fd_sc_hd__dfrbp_1 mem_top_track_0.sc_dff_compact_1_.sky130_fd_sc_hd__dfrbp_1/D
+ mem_top_track_0.sc_dff_compact_1_.sky130_fd_sc_hd__dfrbp_1/Q mem_top_track_0.sc_dff_compact_1_.sky130_fd_sc_hd__dfrbp_1/Q_N
+ _01_/Y clkbuf_3_7_0_prog_clk/X VGND VPWR sky130_fd_sc_hd__dfrbp_1
XANTENNA_mem_right_track_0.sc_dff_compact_5_.sky130_fd_sc_hd__dfrbp_1_RESET_B _01_/Y
+ VGND VPWR sky130_fd_sc_hd__diode_2
XANTENNA_mem_bottom_track_9.sc_dff_compact_2_.sky130_fd_sc_hd__dfrbp_1_RESET_B _01_/Y
+ VGND VPWR sky130_fd_sc_hd__diode_2
XFILLER_13_62 VGND VPWR sky130_fd_sc_hd__fill_2
XFILLER_13_73 VGND VPWR sky130_fd_sc_hd__decap_4
XANTENNA_mem_top_track_8.sc_dff_compact_5_.sky130_fd_sc_hd__dfrbp_1_RESET_B _01_/Y
+ VGND VPWR sky130_fd_sc_hd__diode_2
XANTENNA_mem_top_track_16.sc_dff_compact_0_.sky130_fd_sc_hd__dfrbp_1_RESET_B _01_/Y
+ VGND VPWR sky130_fd_sc_hd__diode_2
XFILLER_24_94 VGND VPWR sky130_fd_sc_hd__fill_2
XFILLER_24_83 VGND VPWR sky130_fd_sc_hd__fill_2
XANTENNA_mem_left_track_9.sc_dff_compact_5_.sky130_fd_sc_hd__dfrbp_1_RESET_B _01_/Y
+ VGND VPWR sky130_fd_sc_hd__diode_2
X_23_ chanx_left_in[2] chanx_right_out[3] VGND VPWR sky130_fd_sc_hd__buf_2
XANTENNA_mem_right_track_16.sc_dff_compact_2_.sky130_fd_sc_hd__dfrbp_1_RESET_B _01_/Y
+ VGND VPWR sky130_fd_sc_hd__diode_2
XFILLER_19_137 VGND VPWR sky130_fd_sc_hd__fill_2
XFILLER_10_30 VGND VPWR sky130_fd_sc_hd__fill_1
Xmem_left_track_17.sc_dff_compact_4_.sky130_fd_sc_hd__dfrbp_1 mem_left_track_17.sc_dff_compact_3_.sky130_fd_sc_hd__dfrbp_1/Q
+ mem_left_track_17.sc_dff_compact_4_.sky130_fd_sc_hd__dfrbp_1/Q mem_left_track_17.sc_dff_compact_4_.sky130_fd_sc_hd__dfrbp_1/Q_N
+ _01_/Y mem_left_track_17.sc_dff_compact_4_.sky130_fd_sc_hd__dfrbp_1/CLK VGND VPWR
+ sky130_fd_sc_hd__dfrbp_1
X_06_ _06_/HI chanx_left_out[4] VGND VPWR sky130_fd_sc_hd__conb_1
XPHY_102 VGND VPWR sky130_fd_sc_hd__tapvpwrvgnd_1
XFILLER_21_40 VGND VPWR sky130_fd_sc_hd__fill_2
XPHY_4 VGND VPWR sky130_fd_sc_hd__decap_3
XFILLER_21_110 VGND VPWR sky130_fd_sc_hd__fill_2
XANTENNA_clkbuf_1_1_0_prog_clk_A clkbuf_0_prog_clk/X VGND VPWR sky130_fd_sc_hd__diode_2
XANTENNA_mem_top_track_16.sc_dff_compact_1_.sky130_fd_sc_hd__dfrbp_1_CLK clkbuf_3_3_0_prog_clk/X
+ VGND VPWR sky130_fd_sc_hd__diode_2
XFILLER_16_84 VGND VPWR sky130_fd_sc_hd__fill_2
XFILLER_16_51 VGND VPWR sky130_fd_sc_hd__fill_2
Xmem_bottom_track_9.sc_dff_compact_3_.sky130_fd_sc_hd__dfrbp_1 mem_bottom_track_9.sc_dff_compact_2_.sky130_fd_sc_hd__dfrbp_1/Q
+ mem_bottom_track_9.sc_dff_compact_4_.sky130_fd_sc_hd__dfrbp_1/D mem_bottom_track_9.sc_dff_compact_3_.sky130_fd_sc_hd__dfrbp_1/Q_N
+ _01_/Y clkbuf_3_4_0_prog_clk/X VGND VPWR sky130_fd_sc_hd__dfrbp_1
XFILLER_4_87 VGND VPWR sky130_fd_sc_hd__fill_1
XFILLER_4_76 VGND VPWR sky130_fd_sc_hd__fill_2