* NGSPICE file created from cbx_1__3_.ext - technology: sky130A

* Black-box entry subcircuit for sky130_fd_sc_hd__decap_12 abstract view
.subckt sky130_fd_sc_hd__decap_12 VGND VPWR
.ends

* Black-box entry subcircuit for sky130_fd_sc_hd__dfrbp_1 abstract view
.subckt sky130_fd_sc_hd__dfrbp_1 D Q Q_N RESET_B CLK VGND VPWR
.ends

* Black-box entry subcircuit for sky130_fd_sc_hd__fill_2 abstract view
.subckt sky130_fd_sc_hd__fill_2 VGND VPWR
.ends

* Black-box entry subcircuit for sky130_fd_sc_hd__decap_8 abstract view
.subckt sky130_fd_sc_hd__decap_8 VGND VPWR
.ends

* Black-box entry subcircuit for sky130_fd_sc_hd__decap_4 abstract view
.subckt sky130_fd_sc_hd__decap_4 VGND VPWR
.ends

* Black-box entry subcircuit for sky130_fd_sc_hd__fill_1 abstract view
.subckt sky130_fd_sc_hd__fill_1 VGND VPWR
.ends

* Black-box entry subcircuit for sky130_fd_sc_hd__diode_2 abstract view
.subckt sky130_fd_sc_hd__diode_2 DIODE VGND VPWR
.ends

* Black-box entry subcircuit for sky130_fd_sc_hd__clkbuf_1 abstract view
.subckt sky130_fd_sc_hd__clkbuf_1 A X VGND VPWR
.ends

* Black-box entry subcircuit for sky130_fd_sc_hd__tapvpwrvgnd_1 abstract view
.subckt sky130_fd_sc_hd__tapvpwrvgnd_1 VGND VPWR
.ends

* Black-box entry subcircuit for sky130_fd_sc_hd__decap_6 abstract view
.subckt sky130_fd_sc_hd__decap_6 VGND VPWR
.ends

* Black-box entry subcircuit for sky130_fd_sc_hd__decap_3 abstract view
.subckt sky130_fd_sc_hd__decap_3 VGND VPWR
.ends

* Black-box entry subcircuit for sky130_fd_sc_hd__buf_2 abstract view
.subckt sky130_fd_sc_hd__buf_2 A X VGND VPWR
.ends

* Black-box entry subcircuit for sky130_fd_sc_hd__conb_1 abstract view
.subckt sky130_fd_sc_hd__conb_1 HI LO VGND VPWR
.ends

* Black-box entry subcircuit for sky130_fd_sc_hd__clkbuf_16 abstract view
.subckt sky130_fd_sc_hd__clkbuf_16 A X VGND VPWR
.ends

.subckt cbx_1__3_ bottom_grid_pin_0_ bottom_grid_pin_4_ bottom_grid_pin_8_ ccff_head
+ ccff_tail chanx_left_in[0] chanx_left_in[1] chanx_left_in[2] chanx_left_in[3] chanx_left_in[4]
+ chanx_left_in[5] chanx_left_in[6] chanx_left_in[7] chanx_left_in[8] chanx_left_out[0]
+ chanx_left_out[1] chanx_left_out[2] chanx_left_out[3] chanx_left_out[4] chanx_left_out[5]
+ chanx_left_out[6] chanx_left_out[7] chanx_left_out[8] chanx_right_in[0] chanx_right_in[1]
+ chanx_right_in[2] chanx_right_in[3] chanx_right_in[4] chanx_right_in[5] chanx_right_in[6]
+ chanx_right_in[7] chanx_right_in[8] chanx_right_out[0] chanx_right_out[1] chanx_right_out[2]
+ chanx_right_out[3] chanx_right_out[4] chanx_right_out[5] chanx_right_out[6] chanx_right_out[7]
+ chanx_right_out[8] pReset prog_clk top_grid_pin_0_ top_grid_pin_10_ top_grid_pin_12_
+ top_grid_pin_14_ top_grid_pin_2_ top_grid_pin_4_ top_grid_pin_6_ top_grid_pin_8_
+ VPWR VGND
XFILLER_22_166 VGND VPWR sky130_fd_sc_hd__decap_12
Xmem_top_ipin_0.sc_dff_compact_4_.sky130_fd_sc_hd__dfrbp_1 mem_top_ipin_0.sc_dff_compact_3_.sky130_fd_sc_hd__dfrbp_1/Q
+ mem_top_ipin_0.sc_dff_compact_4_.sky130_fd_sc_hd__dfrbp_1/Q mem_top_ipin_0.sc_dff_compact_4_.sky130_fd_sc_hd__dfrbp_1/Q_N
+ pReset clkbuf_3_6_0_prog_clk/X VGND VPWR sky130_fd_sc_hd__dfrbp_1
Xmem_bottom_ipin_2.sc_dff_compact_5_.sky130_fd_sc_hd__dfrbp_1 mem_bottom_ipin_2.sc_dff_compact_4_.sky130_fd_sc_hd__dfrbp_1/Q
+ mem_bottom_ipin_2.sc_dff_compact_5_.sky130_fd_sc_hd__dfrbp_1/Q mem_bottom_ipin_2.sc_dff_compact_5_.sky130_fd_sc_hd__dfrbp_1/Q_N
+ pReset clkbuf_3_2_0_prog_clk/X VGND VPWR sky130_fd_sc_hd__dfrbp_1
XFILLER_3_34 VGND VPWR sky130_fd_sc_hd__fill_2
XFILLER_18_203 VGND VPWR sky130_fd_sc_hd__decap_8
XFILLER_12_32 VGND VPWR sky130_fd_sc_hd__decap_4
XFILLER_2_324 VGND VPWR sky130_fd_sc_hd__decap_12
XFILLER_5_184 VGND VPWR sky130_fd_sc_hd__decap_12
XFILLER_23_261 VGND VPWR sky130_fd_sc_hd__decap_12
XFILLER_23_75 VGND VPWR sky130_fd_sc_hd__decap_12
Xmem_bottom_ipin_0.sc_dff_compact_0_.sky130_fd_sc_hd__dfrbp_1 ccff_head mem_bottom_ipin_0.sc_dff_compact_0_.sky130_fd_sc_hd__dfrbp_1/Q
+ mem_bottom_ipin_0.sc_dff_compact_0_.sky130_fd_sc_hd__dfrbp_1/Q_N pReset clkbuf_3_2_0_prog_clk/X
+ VGND VPWR sky130_fd_sc_hd__dfrbp_1
XFILLER_17_9 VGND VPWR sky130_fd_sc_hd__fill_1
XFILLER_0_13 VGND VPWR sky130_fd_sc_hd__decap_4
XFILLER_2_154 VGND VPWR sky130_fd_sc_hd__decap_12
XANTENNA_clkbuf_2_1_0_prog_clk_A clkbuf_2_1_0_prog_clk/A VGND VPWR sky130_fd_sc_hd__diode_2
Xclkbuf_3_4_0_prog_clk clkbuf_3_5_0_prog_clk/A clkbuf_3_4_0_prog_clk/X VGND VPWR sky130_fd_sc_hd__clkbuf_1
XFILLER_22_7 VGND VPWR sky130_fd_sc_hd__fill_2
XANTENNA_mem_top_ipin_0.sc_dff_compact_2_.sky130_fd_sc_hd__dfrbp_1_D mem_top_ipin_0.sc_dff_compact_1_.sky130_fd_sc_hd__dfrbp_1/Q
+ VGND VPWR sky130_fd_sc_hd__diode_2
XFILLER_11_220 VGND VPWR sky130_fd_sc_hd__decap_12
XANTENNA_mem_bottom_ipin_6.sc_dff_compact_4_.sky130_fd_sc_hd__dfrbp_1_D mem_bottom_ipin_6.sc_dff_compact_4_.sky130_fd_sc_hd__dfrbp_1/D
+ VGND VPWR sky130_fd_sc_hd__diode_2
XFILLER_7_257 VGND VPWR sky130_fd_sc_hd__decap_12
XFILLER_20_76 VGND VPWR sky130_fd_sc_hd__decap_4
XFILLER_20_32 VGND VPWR sky130_fd_sc_hd__fill_2
XFILLER_16_312 VGND VPWR sky130_fd_sc_hd__decap_12
XFILLER_4_227 VGND VPWR sky130_fd_sc_hd__decap_12
XFILLER_22_337 VGND VPWR sky130_fd_sc_hd__decap_12
XANTENNA_mem_top_ipin_0.sc_dff_compact_5_.sky130_fd_sc_hd__dfrbp_1_CLK clkbuf_3_6_0_prog_clk/X
+ VGND VPWR sky130_fd_sc_hd__diode_2
XFILLER_13_3 VGND VPWR sky130_fd_sc_hd__fill_2
XFILLER_6_45 VGND VPWR sky130_fd_sc_hd__fill_2
XFILLER_15_87 VGND VPWR sky130_fd_sc_hd__decap_8
XFILLER_1_208 VGND VPWR sky130_fd_sc_hd__decap_12
XPHY_181 VGND VPWR sky130_fd_sc_hd__tapvpwrvgnd_1
XPHY_170 VGND VPWR sky130_fd_sc_hd__tapvpwrvgnd_1
XFILLER_16_142 VGND VPWR sky130_fd_sc_hd__decap_8
XFILLER_0_230 VGND VPWR sky130_fd_sc_hd__decap_12
XFILLER_0_296 VGND VPWR sky130_fd_sc_hd__fill_2
XFILLER_22_178 VGND VPWR sky130_fd_sc_hd__decap_12
XFILLER_13_123 VGND VPWR sky130_fd_sc_hd__fill_2
XANTENNA_mem_bottom_ipin_7.sc_dff_compact_2_.sky130_fd_sc_hd__dfrbp_1_D mem_bottom_ipin_7.sc_dff_compact_2_.sky130_fd_sc_hd__dfrbp_1/D
+ VGND VPWR sky130_fd_sc_hd__diode_2
XFILLER_9_127 VGND VPWR sky130_fd_sc_hd__decap_4
XANTENNA_mem_top_ipin_1.sc_dff_compact_0_.sky130_fd_sc_hd__dfrbp_1_D mem_top_ipin_1.sc_dff_compact_0_.sky130_fd_sc_hd__dfrbp_1/D
+ VGND VPWR sky130_fd_sc_hd__diode_2
XFILLER_18_215 VGND VPWR sky130_fd_sc_hd__decap_12
XFILLER_12_11 VGND VPWR sky130_fd_sc_hd__decap_12
XFILLER_10_148 VGND VPWR sky130_fd_sc_hd__decap_4
XFILLER_10_104 VGND VPWR sky130_fd_sc_hd__fill_2
XANTENNA_mem_top_ipin_0.sc_dff_compact_5_.sky130_fd_sc_hd__dfrbp_1_D mem_top_ipin_0.sc_dff_compact_4_.sky130_fd_sc_hd__dfrbp_1/Q
+ VGND VPWR sky130_fd_sc_hd__diode_2
XFILLER_17_281 VGND VPWR sky130_fd_sc_hd__decap_12
XFILLER_5_196 VGND VPWR sky130_fd_sc_hd__decap_12
XFILLER_23_273 VGND VPWR sky130_fd_sc_hd__decap_6
XFILLER_23_32 VGND VPWR sky130_fd_sc_hd__decap_12
XFILLER_23_87 VGND VPWR sky130_fd_sc_hd__decap_6
XANTENNA_mem_bottom_ipin_1.sc_dff_compact_1_.sky130_fd_sc_hd__dfrbp_1_RESET_B pReset
+ VGND VPWR sky130_fd_sc_hd__diode_2
XFILLER_14_251 VGND VPWR sky130_fd_sc_hd__decap_12
XFILLER_9_89 VGND VPWR sky130_fd_sc_hd__fill_2
XFILLER_9_34 VGND VPWR sky130_fd_sc_hd__fill_2
XFILLER_0_58 VGND VPWR sky130_fd_sc_hd__decap_4
XFILLER_0_25 VGND VPWR sky130_fd_sc_hd__fill_2
XFILLER_2_166 VGND VPWR sky130_fd_sc_hd__decap_12
XANTENNA_mem_bottom_ipin_1.sc_dff_compact_0_.sky130_fd_sc_hd__dfrbp_1_CLK clkbuf_3_6_0_prog_clk/X
+ VGND VPWR sky130_fd_sc_hd__diode_2
XFILLER_20_276 VGND VPWR sky130_fd_sc_hd__decap_12
XFILLER_18_98 VGND VPWR sky130_fd_sc_hd__fill_2
XFILLER_18_87 VGND VPWR sky130_fd_sc_hd__fill_1
XFILLER_18_32 VGND VPWR sky130_fd_sc_hd__fill_2
XANTENNA_mem_bottom_ipin_2.sc_dff_compact_1_.sky130_fd_sc_hd__dfrbp_1_CLK clkbuf_3_2_0_prog_clk/X
+ VGND VPWR sky130_fd_sc_hd__diode_2
XFILLER_11_232 VGND VPWR sky130_fd_sc_hd__decap_12
XANTENNA_mem_bottom_ipin_3.sc_dff_compact_2_.sky130_fd_sc_hd__dfrbp_1_RESET_B pReset
+ VGND VPWR sky130_fd_sc_hd__diode_2
XFILLER_7_269 VGND VPWR sky130_fd_sc_hd__decap_12
XFILLER_19_310 VGND VPWR sky130_fd_sc_hd__decap_12
XANTENNA_mem_bottom_ipin_3.sc_dff_compact_2_.sky130_fd_sc_hd__dfrbp_1_CLK clkbuf_3_0_0_prog_clk/X
+ VGND VPWR sky130_fd_sc_hd__diode_2
XANTENNA_mem_bottom_ipin_5.sc_dff_compact_3_.sky130_fd_sc_hd__dfrbp_1_RESET_B pReset
+ VGND VPWR sky130_fd_sc_hd__diode_2
XANTENNA_mem_bottom_ipin_4.sc_dff_compact_3_.sky130_fd_sc_hd__dfrbp_1_CLK clkbuf_3_1_0_prog_clk/X
+ VGND VPWR sky130_fd_sc_hd__diode_2
XFILLER_20_99 VGND VPWR sky130_fd_sc_hd__decap_8
XANTENNA_mem_bottom_ipin_5.sc_dff_compact_4_.sky130_fd_sc_hd__dfrbp_1_CLK clkbuf_3_5_0_prog_clk/X
+ VGND VPWR sky130_fd_sc_hd__diode_2
XFILLER_4_239 VGND VPWR sky130_fd_sc_hd__decap_12
XFILLER_19_184 VGND VPWR sky130_fd_sc_hd__decap_12
XFILLER_19_162 VGND VPWR sky130_fd_sc_hd__fill_2
XFILLER_16_324 VGND VPWR sky130_fd_sc_hd__decap_12
XANTENNA_mem_bottom_ipin_7.sc_dff_compact_5_.sky130_fd_sc_hd__dfrbp_1_D mem_bottom_ipin_7.sc_dff_compact_4_.sky130_fd_sc_hd__dfrbp_1/Q
+ VGND VPWR sky130_fd_sc_hd__diode_2
XANTENNA_mem_bottom_ipin_6.sc_dff_compact_5_.sky130_fd_sc_hd__dfrbp_1_CLK clkbuf_3_5_0_prog_clk/X
+ VGND VPWR sky130_fd_sc_hd__diode_2
XANTENNA_mem_bottom_ipin_7.sc_dff_compact_4_.sky130_fd_sc_hd__dfrbp_1_RESET_B pReset
+ VGND VPWR sky130_fd_sc_hd__diode_2
XFILLER_6_79 VGND VPWR sky130_fd_sc_hd__decap_4
XFILLER_22_349 VGND VPWR sky130_fd_sc_hd__decap_3
XPHY_182 VGND VPWR sky130_fd_sc_hd__tapvpwrvgnd_1
XPHY_171 VGND VPWR sky130_fd_sc_hd__tapvpwrvgnd_1
XPHY_160 VGND VPWR sky130_fd_sc_hd__tapvpwrvgnd_1
XFILLER_16_154 VGND VPWR sky130_fd_sc_hd__fill_2
XFILLER_0_242 VGND VPWR sky130_fd_sc_hd__decap_6
XFILLER_0_286 VGND VPWR sky130_fd_sc_hd__fill_2
XFILLER_22_135 VGND VPWR sky130_fd_sc_hd__decap_12
Xmem_bottom_ipin_7.sc_dff_compact_2_.sky130_fd_sc_hd__dfrbp_1 mem_bottom_ipin_7.sc_dff_compact_2_.sky130_fd_sc_hd__dfrbp_1/D
+ mem_bottom_ipin_7.sc_dff_compact_2_.sky130_fd_sc_hd__dfrbp_1/Q mem_bottom_ipin_7.sc_dff_compact_2_.sky130_fd_sc_hd__dfrbp_1/Q_N
+ pReset clkbuf_3_6_0_prog_clk/X VGND VPWR sky130_fd_sc_hd__dfrbp_1
Xmem_bottom_ipin_4.sc_dff_compact_3_.sky130_fd_sc_hd__dfrbp_1 mem_bottom_ipin_4.sc_dff_compact_3_.sky130_fd_sc_hd__dfrbp_1/D
+ mem_bottom_ipin_4.sc_dff_compact_3_.sky130_fd_sc_hd__dfrbp_1/Q mem_bottom_ipin_4.sc_dff_compact_3_.sky130_fd_sc_hd__dfrbp_1/Q_N
+ pReset clkbuf_3_1_0_prog_clk/X VGND VPWR sky130_fd_sc_hd__dfrbp_1
XFILLER_12_23 VGND VPWR sky130_fd_sc_hd__decap_8
XFILLER_2_337 VGND VPWR sky130_fd_sc_hd__decap_12
XFILLER_18_227 VGND VPWR sky130_fd_sc_hd__decap_12
Xmem_bottom_ipin_1.sc_dff_compact_4_.sky130_fd_sc_hd__dfrbp_1 mem_bottom_ipin_1.sc_dff_compact_3_.sky130_fd_sc_hd__dfrbp_1/Q
+ mem_bottom_ipin_1.sc_dff_compact_5_.sky130_fd_sc_hd__dfrbp_1/D mem_bottom_ipin_1.sc_dff_compact_4_.sky130_fd_sc_hd__dfrbp_1/Q_N
+ pReset clkbuf_3_0_0_prog_clk/X VGND VPWR sky130_fd_sc_hd__dfrbp_1
XFILLER_5_120 VGND VPWR sky130_fd_sc_hd__fill_2
XFILLER_5_153 VGND VPWR sky130_fd_sc_hd__fill_2
XANTENNA_mem_top_ipin_2.sc_dff_compact_1_.sky130_fd_sc_hd__dfrbp_1_D mem_top_ipin_2.sc_dff_compact_1_.sky130_fd_sc_hd__dfrbp_1/D
+ VGND VPWR sky130_fd_sc_hd__diode_2
XFILLER_17_293 VGND VPWR sky130_fd_sc_hd__decap_12
XFILLER_15_208 VGND VPWR sky130_fd_sc_hd__decap_12
XFILLER_23_230 VGND VPWR sky130_fd_sc_hd__decap_12
XFILLER_23_44 VGND VPWR sky130_fd_sc_hd__decap_12
XFILLER_14_263 VGND VPWR sky130_fd_sc_hd__decap_12
XFILLER_0_37 VGND VPWR sky130_fd_sc_hd__decap_12
XFILLER_2_178 VGND VPWR sky130_fd_sc_hd__decap_12
XFILLER_3_3 VGND VPWR sky130_fd_sc_hd__fill_2
XFILLER_20_288 VGND VPWR sky130_fd_sc_hd__decap_4
XFILLER_19_322 VGND VPWR sky130_fd_sc_hd__decap_12
XFILLER_20_12 VGND VPWR sky130_fd_sc_hd__decap_12
XANTENNA_clkbuf_1_0_0_prog_clk_A clkbuf_0_prog_clk/X VGND VPWR sky130_fd_sc_hd__diode_2
XFILLER_3_295 VGND VPWR sky130_fd_sc_hd__decap_8
XFILLER_6_36 VGND VPWR sky130_fd_sc_hd__decap_6
XFILLER_19_196 VGND VPWR sky130_fd_sc_hd__decap_8
XFILLER_19_174 VGND VPWR sky130_fd_sc_hd__decap_8
XFILLER_21_350 VGND VPWR sky130_fd_sc_hd__fill_2
XFILLER_16_122 VGND VPWR sky130_fd_sc_hd__fill_2
XFILLER_13_306 VGND VPWR sky130_fd_sc_hd__decap_12
XPHY_183 VGND VPWR sky130_fd_sc_hd__tapvpwrvgnd_1
XFILLER_22_147 VGND VPWR sky130_fd_sc_hd__decap_6
XPHY_172 VGND VPWR sky130_fd_sc_hd__tapvpwrvgnd_1
XPHY_161 VGND VPWR sky130_fd_sc_hd__tapvpwrvgnd_1
XPHY_150 VGND VPWR sky130_fd_sc_hd__tapvpwrvgnd_1
Xclkbuf_2_1_0_prog_clk clkbuf_2_1_0_prog_clk/A clkbuf_3_3_0_prog_clk/A VGND VPWR sky130_fd_sc_hd__clkbuf_1
XFILLER_13_114 VGND VPWR sky130_fd_sc_hd__fill_2
XFILLER_9_118 VGND VPWR sky130_fd_sc_hd__decap_4
XFILLER_12_191 VGND VPWR sky130_fd_sc_hd__decap_12
XFILLER_3_59 VGND VPWR sky130_fd_sc_hd__fill_2
XANTENNA_mem_bottom_ipin_0.sc_dff_compact_1_.sky130_fd_sc_hd__dfrbp_1_RESET_B pReset
+ VGND VPWR sky130_fd_sc_hd__diode_2
XFILLER_5_7 VGND VPWR sky130_fd_sc_hd__decap_4
XFILLER_18_239 VGND VPWR sky130_fd_sc_hd__decap_12
XFILLER_2_349 VGND VPWR sky130_fd_sc_hd__decap_3
XFILLER_5_165 VGND VPWR sky130_fd_sc_hd__decap_12
XANTENNA_mem_bottom_ipin_2.sc_dff_compact_2_.sky130_fd_sc_hd__dfrbp_1_RESET_B pReset
+ VGND VPWR sky130_fd_sc_hd__diode_2
XFILLER_4_91 VGND VPWR sky130_fd_sc_hd__fill_1
XFILLER_23_242 VGND VPWR sky130_fd_sc_hd__decap_6
XFILLER_23_56 VGND VPWR sky130_fd_sc_hd__decap_6
XANTENNA__12__A chanx_right_in[7] VGND VPWR sky130_fd_sc_hd__diode_2
XFILLER_0_49 VGND VPWR sky130_fd_sc_hd__fill_1
XANTENNA_mem_bottom_ipin_4.sc_dff_compact_3_.sky130_fd_sc_hd__dfrbp_1_RESET_B pReset
+ VGND VPWR sky130_fd_sc_hd__diode_2
XFILLER_9_47 VGND VPWR sky130_fd_sc_hd__decap_12
XFILLER_20_267 VGND VPWR sky130_fd_sc_hd__decap_8
XFILLER_20_223 VGND VPWR sky130_fd_sc_hd__fill_2
XFILLER_18_23 VGND VPWR sky130_fd_sc_hd__fill_2
XANTENNA_mem_bottom_ipin_6.sc_dff_compact_4_.sky130_fd_sc_hd__dfrbp_1_RESET_B pReset
+ VGND VPWR sky130_fd_sc_hd__diode_2
XFILLER_19_334 VGND VPWR sky130_fd_sc_hd__decap_12
XFILLER_11_245 VGND VPWR sky130_fd_sc_hd__decap_12
XFILLER_20_24 VGND VPWR sky130_fd_sc_hd__decap_6
XFILLER_6_271 VGND VPWR sky130_fd_sc_hd__decap_4
Xclkbuf_3_3_0_prog_clk clkbuf_3_3_0_prog_clk/A clkbuf_3_3_0_prog_clk/X VGND VPWR sky130_fd_sc_hd__clkbuf_1
XFILLER_20_57 VGND VPWR sky130_fd_sc_hd__decap_4
XFILLER_16_337 VGND VPWR sky130_fd_sc_hd__decap_12
XFILLER_19_131 VGND VPWR sky130_fd_sc_hd__decap_4
XFILLER_15_24 VGND VPWR sky130_fd_sc_hd__fill_2
XFILLER_13_318 VGND VPWR sky130_fd_sc_hd__decap_12
XFILLER_0_255 VGND VPWR sky130_fd_sc_hd__fill_2
XFILLER_0_211 VGND VPWR sky130_fd_sc_hd__decap_6
XANTENNA__20__A chanx_left_in[8] VGND VPWR sky130_fd_sc_hd__diode_2
XPHY_184 VGND VPWR sky130_fd_sc_hd__tapvpwrvgnd_1
XPHY_173 VGND VPWR sky130_fd_sc_hd__tapvpwrvgnd_1
XPHY_162 VGND VPWR sky130_fd_sc_hd__tapvpwrvgnd_1
XPHY_151 VGND VPWR sky130_fd_sc_hd__tapvpwrvgnd_1
XFILLER_16_134 VGND VPWR sky130_fd_sc_hd__fill_2
XPHY_140 VGND VPWR sky130_fd_sc_hd__tapvpwrvgnd_1
XFILLER_11_3 VGND VPWR sky130_fd_sc_hd__fill_2
XFILLER_8_300 VGND VPWR sky130_fd_sc_hd__decap_12
XFILLER_22_126 VGND VPWR sky130_fd_sc_hd__decap_3
XFILLER_13_148 VGND VPWR sky130_fd_sc_hd__fill_2
XANTENNA__15__A chanx_right_in[4] VGND VPWR sky130_fd_sc_hd__diode_2
XFILLER_3_38 VGND VPWR sky130_fd_sc_hd__fill_2
XFILLER_12_36 VGND VPWR sky130_fd_sc_hd__fill_1
XFILLER_8_152 VGND VPWR sky130_fd_sc_hd__fill_1
Xmem_bottom_ipin_6.sc_dff_compact_1_.sky130_fd_sc_hd__dfrbp_1 mem_bottom_ipin_6.sc_dff_compact_0_.sky130_fd_sc_hd__dfrbp_1/Q
+ mem_bottom_ipin_6.sc_dff_compact_1_.sky130_fd_sc_hd__dfrbp_1/Q mem_bottom_ipin_6.sc_dff_compact_1_.sky130_fd_sc_hd__dfrbp_1/Q_N
+ pReset clkbuf_3_5_0_prog_clk/X VGND VPWR sky130_fd_sc_hd__dfrbp_1
XFILLER_1_350 VGND VPWR sky130_fd_sc_hd__fill_2
XFILLER_5_177 VGND VPWR sky130_fd_sc_hd__decap_6
Xmem_top_ipin_1.sc_dff_compact_1_.sky130_fd_sc_hd__dfrbp_1 mem_top_ipin_1.sc_dff_compact_0_.sky130_fd_sc_hd__dfrbp_1/Q
+ mem_top_ipin_1.sc_dff_compact_1_.sky130_fd_sc_hd__dfrbp_1/Q mem_top_ipin_1.sc_dff_compact_1_.sky130_fd_sc_hd__dfrbp_1/Q_N
+ pReset clkbuf_3_7_0_prog_clk/X VGND VPWR sky130_fd_sc_hd__dfrbp_1
Xmem_bottom_ipin_3.sc_dff_compact_2_.sky130_fd_sc_hd__dfrbp_1 mem_bottom_ipin_3.sc_dff_compact_1_.sky130_fd_sc_hd__dfrbp_1/Q
+ mem_bottom_ipin_3.sc_dff_compact_3_.sky130_fd_sc_hd__dfrbp_1/D mem_bottom_ipin_3.sc_dff_compact_2_.sky130_fd_sc_hd__dfrbp_1/Q_N
+ pReset clkbuf_3_0_0_prog_clk/X VGND VPWR sky130_fd_sc_hd__dfrbp_1
XFILLER_14_276 VGND VPWR sky130_fd_sc_hd__decap_12
XFILLER_9_59 VGND VPWR sky130_fd_sc_hd__fill_2
Xmem_bottom_ipin_0.sc_dff_compact_3_.sky130_fd_sc_hd__dfrbp_1 mem_bottom_ipin_0.sc_dff_compact_3_.sky130_fd_sc_hd__dfrbp_1/D
+ mem_bottom_ipin_0.sc_dff_compact_4_.sky130_fd_sc_hd__dfrbp_1/D mem_bottom_ipin_0.sc_dff_compact_3_.sky130_fd_sc_hd__dfrbp_1/Q_N
+ pReset clkbuf_3_2_0_prog_clk/X VGND VPWR sky130_fd_sc_hd__dfrbp_1
XFILLER_18_57 VGND VPWR sky130_fd_sc_hd__decap_12
XFILLER_18_13 VGND VPWR sky130_fd_sc_hd__fill_2
XFILLER_19_346 VGND VPWR sky130_fd_sc_hd__decap_6
XFILLER_19_302 VGND VPWR sky130_fd_sc_hd__decap_3
XFILLER_11_257 VGND VPWR sky130_fd_sc_hd__decap_12
XANTENNA__23__A chanx_left_in[5] VGND VPWR sky130_fd_sc_hd__diode_2
X_28_ chanx_left_in[0] chanx_right_out[0] VGND VPWR sky130_fd_sc_hd__buf_2
XFILLER_1_60 VGND VPWR sky130_fd_sc_hd__fill_1
XFILLER_16_349 VGND VPWR sky130_fd_sc_hd__decap_3
XANTENNA__18__A chanx_right_in[1] VGND VPWR sky130_fd_sc_hd__diode_2
XFILLER_20_8 VGND VPWR sky130_fd_sc_hd__fill_2
XFILLER_10_80 VGND VPWR sky130_fd_sc_hd__decap_12
XFILLER_3_220 VGND VPWR sky130_fd_sc_hd__decap_12
XFILLER_6_27 VGND VPWR sky130_fd_sc_hd__decap_4
XFILLER_6_49 VGND VPWR sky130_fd_sc_hd__fill_2
XFILLER_21_330 VGND VPWR sky130_fd_sc_hd__decap_12
XPHY_185 VGND VPWR sky130_fd_sc_hd__tapvpwrvgnd_1
XPHY_174 VGND VPWR sky130_fd_sc_hd__tapvpwrvgnd_1
XPHY_163 VGND VPWR sky130_fd_sc_hd__tapvpwrvgnd_1
XPHY_152 VGND VPWR sky130_fd_sc_hd__tapvpwrvgnd_1
XFILLER_16_179 VGND VPWR sky130_fd_sc_hd__decap_12
XPHY_141 VGND VPWR sky130_fd_sc_hd__tapvpwrvgnd_1
XPHY_130 VGND VPWR sky130_fd_sc_hd__tapvpwrvgnd_1
XFILLER_8_312 VGND VPWR sky130_fd_sc_hd__decap_12
XFILLER_7_81 VGND VPWR sky130_fd_sc_hd__fill_2
XFILLER_21_182 VGND VPWR sky130_fd_sc_hd__fill_1
XANTENNA_mem_bottom_ipin_1.sc_dff_compact_2_.sky130_fd_sc_hd__dfrbp_1_RESET_B pReset
+ VGND VPWR sky130_fd_sc_hd__diode_2
XFILLER_3_28 VGND VPWR sky130_fd_sc_hd__decap_4
XFILLER_16_90 VGND VPWR sky130_fd_sc_hd__fill_2
XFILLER_8_142 VGND VPWR sky130_fd_sc_hd__fill_2
XANTENNA__26__A chanx_left_in[2] VGND VPWR sky130_fd_sc_hd__diode_2
XANTENNA_mem_bottom_ipin_3.sc_dff_compact_3_.sky130_fd_sc_hd__dfrbp_1_RESET_B pReset
+ VGND VPWR sky130_fd_sc_hd__diode_2
XFILLER_10_108 VGND VPWR sky130_fd_sc_hd__fill_2
XFILLER_5_112 VGND VPWR sky130_fd_sc_hd__fill_2
XANTENNA_mem_bottom_ipin_5.sc_dff_compact_4_.sky130_fd_sc_hd__dfrbp_1_RESET_B pReset
+ VGND VPWR sky130_fd_sc_hd__diode_2
XFILLER_5_123 VGND VPWR sky130_fd_sc_hd__decap_3
XFILLER_23_211 VGND VPWR sky130_fd_sc_hd__decap_6
XFILLER_4_71 VGND VPWR sky130_fd_sc_hd__fill_2
XFILLER_4_93 VGND VPWR sky130_fd_sc_hd__decap_4
XANTENNA_mem_bottom_ipin_7.sc_dff_compact_5_.sky130_fd_sc_hd__dfrbp_1_RESET_B pReset
+ VGND VPWR sky130_fd_sc_hd__diode_2
XFILLER_14_288 VGND VPWR sky130_fd_sc_hd__decap_12
XFILLER_9_38 VGND VPWR sky130_fd_sc_hd__fill_2
XFILLER_0_29 VGND VPWR sky130_fd_sc_hd__fill_2
XANTENNA_mem_top_ipin_0.sc_dff_compact_4_.sky130_fd_sc_hd__dfrbp_1_CLK clkbuf_3_6_0_prog_clk/X
+ VGND VPWR sky130_fd_sc_hd__diode_2
XFILLER_9_281 VGND VPWR sky130_fd_sc_hd__decap_12
XFILLER_18_69 VGND VPWR sky130_fd_sc_hd__decap_12
XANTENNA_clkbuf_3_3_0_prog_clk_A clkbuf_3_3_0_prog_clk/A VGND VPWR sky130_fd_sc_hd__diode_2
XFILLER_11_269 VGND VPWR sky130_fd_sc_hd__decap_12
XFILLER_1_3 VGND VPWR sky130_fd_sc_hd__fill_2
X_27_ chanx_left_in[1] chanx_right_out[1] VGND VPWR sky130_fd_sc_hd__buf_2
XANTENNA_mem_bottom_ipin_0.sc_dff_compact_0_.sky130_fd_sc_hd__dfrbp_1_D ccff_head
+ VGND VPWR sky130_fd_sc_hd__diode_2
XFILLER_19_166 VGND VPWR sky130_fd_sc_hd__fill_2
XFILLER_15_350 VGND VPWR sky130_fd_sc_hd__fill_2
XFILLER_3_232 VGND VPWR sky130_fd_sc_hd__decap_12
XFILLER_6_17 VGND VPWR sky130_fd_sc_hd__decap_3
XFILLER_21_342 VGND VPWR sky130_fd_sc_hd__decap_8
XFILLER_15_59 VGND VPWR sky130_fd_sc_hd__fill_2
XFILLER_15_15 VGND VPWR sky130_fd_sc_hd__decap_3
XPHY_186 VGND VPWR sky130_fd_sc_hd__tapvpwrvgnd_1
XPHY_175 VGND VPWR sky130_fd_sc_hd__tapvpwrvgnd_1
XPHY_164 VGND VPWR sky130_fd_sc_hd__tapvpwrvgnd_1
XPHY_153 VGND VPWR sky130_fd_sc_hd__tapvpwrvgnd_1
XPHY_142 VGND VPWR sky130_fd_sc_hd__tapvpwrvgnd_1
XPHY_131 VGND VPWR sky130_fd_sc_hd__tapvpwrvgnd_1
XPHY_120 VGND VPWR sky130_fd_sc_hd__tapvpwrvgnd_1
XFILLER_8_324 VGND VPWR sky130_fd_sc_hd__decap_12
XPHY_0 VGND VPWR sky130_fd_sc_hd__decap_3
Xmem_bottom_ipin_7.sc_dff_compact_5_.sky130_fd_sc_hd__dfrbp_1 mem_bottom_ipin_7.sc_dff_compact_4_.sky130_fd_sc_hd__dfrbp_1/Q
+ mem_top_ipin_0.sc_dff_compact_0_.sky130_fd_sc_hd__dfrbp_1/D mem_bottom_ipin_7.sc_dff_compact_5_.sky130_fd_sc_hd__dfrbp_1/Q_N
+ pReset clkbuf_3_7_0_prog_clk/X VGND VPWR sky130_fd_sc_hd__dfrbp_1
XFILLER_8_154 VGND VPWR sky130_fd_sc_hd__fill_2
XANTENNA_mem_bottom_ipin_2.sc_dff_compact_0_.sky130_fd_sc_hd__dfrbp_1_CLK clkbuf_3_1_0_prog_clk/X
+ VGND VPWR sky130_fd_sc_hd__diode_2
XFILLER_17_220 VGND VPWR sky130_fd_sc_hd__decap_12
XANTENNA_mem_bottom_ipin_3.sc_dff_compact_1_.sky130_fd_sc_hd__dfrbp_1_CLK clkbuf_3_3_0_prog_clk/X
+ VGND VPWR sky130_fd_sc_hd__diode_2
Xclkbuf_2_0_0_prog_clk clkbuf_2_1_0_prog_clk/A clkbuf_3_1_0_prog_clk/A VGND VPWR sky130_fd_sc_hd__clkbuf_1
XFILLER_1_330 VGND VPWR sky130_fd_sc_hd__decap_12
XFILLER_5_157 VGND VPWR sky130_fd_sc_hd__fill_2
XFILLER_4_61 VGND VPWR sky130_fd_sc_hd__fill_1
XFILLER_4_190 VGND VPWR sky130_fd_sc_hd__decap_12
XANTENNA_mem_bottom_ipin_5.sc_dff_compact_3_.sky130_fd_sc_hd__dfrbp_1_CLK clkbuf_3_4_0_prog_clk/X
+ VGND VPWR sky130_fd_sc_hd__diode_2
XANTENNA_mem_bottom_ipin_4.sc_dff_compact_2_.sky130_fd_sc_hd__dfrbp_1_CLK clkbuf_3_1_0_prog_clk/X
+ VGND VPWR sky130_fd_sc_hd__diode_2
XFILLER_13_81 VGND VPWR sky130_fd_sc_hd__fill_2
XANTENNA_mem_bottom_ipin_6.sc_dff_compact_4_.sky130_fd_sc_hd__dfrbp_1_CLK clkbuf_3_5_0_prog_clk/X
+ VGND VPWR sky130_fd_sc_hd__diode_2
XFILLER_9_28 VGND VPWR sky130_fd_sc_hd__decap_4
XFILLER_2_105 VGND VPWR sky130_fd_sc_hd__decap_12
Xmem_bottom_ipin_5.sc_dff_compact_0_.sky130_fd_sc_hd__dfrbp_1 mem_bottom_ipin_5.sc_dff_compact_0_.sky130_fd_sc_hd__dfrbp_1/D
+ mem_bottom_ipin_5.sc_dff_compact_0_.sky130_fd_sc_hd__dfrbp_1/Q mem_bottom_ipin_5.sc_dff_compact_0_.sky130_fd_sc_hd__dfrbp_1/Q_N
+ pReset clkbuf_3_4_0_prog_clk/X VGND VPWR sky130_fd_sc_hd__dfrbp_1
XANTENNA_mem_bottom_ipin_0.sc_dff_compact_3_.sky130_fd_sc_hd__dfrbp_1_D mem_bottom_ipin_0.sc_dff_compact_3_.sky130_fd_sc_hd__dfrbp_1/D
+ VGND VPWR sky130_fd_sc_hd__diode_2
XFILLER_20_215 VGND VPWR sky130_fd_sc_hd__decap_8
XANTENNA_mem_bottom_ipin_7.sc_dff_compact_5_.sky130_fd_sc_hd__dfrbp_1_CLK clkbuf_3_7_0_prog_clk/X
+ VGND VPWR sky130_fd_sc_hd__diode_2
XFILLER_9_293 VGND VPWR sky130_fd_sc_hd__decap_12
XFILLER_1_171 VGND VPWR sky130_fd_sc_hd__decap_12
Xmem_bottom_ipin_2.sc_dff_compact_1_.sky130_fd_sc_hd__dfrbp_1 mem_bottom_ipin_2.sc_dff_compact_0_.sky130_fd_sc_hd__dfrbp_1/Q
+ mem_bottom_ipin_2.sc_dff_compact_1_.sky130_fd_sc_hd__dfrbp_1/Q mem_bottom_ipin_2.sc_dff_compact_1_.sky130_fd_sc_hd__dfrbp_1/Q_N
+ pReset clkbuf_3_2_0_prog_clk/X VGND VPWR sky130_fd_sc_hd__dfrbp_1
XFILLER_7_208 VGND VPWR sky130_fd_sc_hd__decap_12
Xmem_top_ipin_0.sc_dff_compact_0_.sky130_fd_sc_hd__dfrbp_1 mem_top_ipin_0.sc_dff_compact_0_.sky130_fd_sc_hd__dfrbp_1/D
+ mem_top_ipin_0.sc_dff_compact_0_.sky130_fd_sc_hd__dfrbp_1/Q mem_top_ipin_0.sc_dff_compact_0_.sky130_fd_sc_hd__dfrbp_1/Q_N
+ pReset clkbuf_3_7_0_prog_clk/X VGND VPWR sky130_fd_sc_hd__dfrbp_1
X_26_ chanx_left_in[2] chanx_right_out[2] VGND VPWR sky130_fd_sc_hd__buf_2
XFILLER_1_62 VGND VPWR sky130_fd_sc_hd__decap_12
XFILLER_1_40 VGND VPWR sky130_fd_sc_hd__fill_2
XFILLER_19_123 VGND VPWR sky130_fd_sc_hd__fill_2
XFILLER_10_93 VGND VPWR sky130_fd_sc_hd__decap_8
X_09_ _09_/HI top_grid_pin_2_ VGND VPWR sky130_fd_sc_hd__conb_1
XANTENNA_mem_bottom_ipin_0.sc_dff_compact_2_.sky130_fd_sc_hd__dfrbp_1_RESET_B pReset
+ VGND VPWR sky130_fd_sc_hd__diode_2
XPHY_187 VGND VPWR sky130_fd_sc_hd__tapvpwrvgnd_1
XPHY_176 VGND VPWR sky130_fd_sc_hd__tapvpwrvgnd_1
XPHY_165 VGND VPWR sky130_fd_sc_hd__tapvpwrvgnd_1
XPHY_154 VGND VPWR sky130_fd_sc_hd__tapvpwrvgnd_1
XPHY_143 VGND VPWR sky130_fd_sc_hd__tapvpwrvgnd_1
XFILLER_16_126 VGND VPWR sky130_fd_sc_hd__fill_2
XPHY_132 VGND VPWR sky130_fd_sc_hd__tapvpwrvgnd_1
XPHY_121 VGND VPWR sky130_fd_sc_hd__tapvpwrvgnd_1
XPHY_110 VGND VPWR sky130_fd_sc_hd__tapvpwrvgnd_1
XFILLER_22_118 VGND VPWR sky130_fd_sc_hd__decap_8
XANTENNA_mem_bottom_ipin_1.sc_dff_compact_1_.sky130_fd_sc_hd__dfrbp_1_D mem_bottom_ipin_1.sc_dff_compact_0_.sky130_fd_sc_hd__dfrbp_1/Q
+ VGND VPWR sky130_fd_sc_hd__diode_2
XANTENNA_mem_bottom_ipin_2.sc_dff_compact_3_.sky130_fd_sc_hd__dfrbp_1_RESET_B pReset
+ VGND VPWR sky130_fd_sc_hd__diode_2
XPHY_1 VGND VPWR sky130_fd_sc_hd__decap_3
XFILLER_21_184 VGND VPWR sky130_fd_sc_hd__decap_12
Xclkbuf_3_2_0_prog_clk clkbuf_3_3_0_prog_clk/A clkbuf_3_2_0_prog_clk/X VGND VPWR sky130_fd_sc_hd__clkbuf_1
XFILLER_13_118 VGND VPWR sky130_fd_sc_hd__decap_4
XANTENNA_mem_bottom_ipin_4.sc_dff_compact_4_.sky130_fd_sc_hd__dfrbp_1_RESET_B pReset
+ VGND VPWR sky130_fd_sc_hd__diode_2
XFILLER_5_306 VGND VPWR sky130_fd_sc_hd__decap_12
XFILLER_12_151 VGND VPWR sky130_fd_sc_hd__fill_2
XFILLER_12_39 VGND VPWR sky130_fd_sc_hd__fill_2
XANTENNA_mem_bottom_ipin_6.sc_dff_compact_5_.sky130_fd_sc_hd__dfrbp_1_RESET_B pReset
+ VGND VPWR sky130_fd_sc_hd__diode_2
XFILLER_1_342 VGND VPWR sky130_fd_sc_hd__decap_8
XFILLER_17_232 VGND VPWR sky130_fd_sc_hd__decap_12
XFILLER_14_202 VGND VPWR sky130_fd_sc_hd__decap_12
XFILLER_2_117 VGND VPWR sky130_fd_sc_hd__decap_12
XFILLER_1_74 VGND VPWR sky130_fd_sc_hd__decap_12
X_25_ chanx_left_in[3] chanx_right_out[3] VGND VPWR sky130_fd_sc_hd__buf_2
XANTENNA_mem_bottom_ipin_1.sc_dff_compact_4_.sky130_fd_sc_hd__dfrbp_1_D mem_bottom_ipin_1.sc_dff_compact_3_.sky130_fd_sc_hd__dfrbp_1/Q
+ VGND VPWR sky130_fd_sc_hd__diode_2
XFILLER_10_61 VGND VPWR sky130_fd_sc_hd__fill_1
XFILLER_3_245 VGND VPWR sky130_fd_sc_hd__decap_12
XFILLER_3_289 VGND VPWR sky130_fd_sc_hd__decap_3
X_08_ _08_/HI top_grid_pin_14_ VGND VPWR sky130_fd_sc_hd__conb_1
XFILLER_15_330 VGND VPWR sky130_fd_sc_hd__decap_12
XANTENNA_clkbuf_2_2_0_prog_clk_A clkbuf_2_3_0_prog_clk/A VGND VPWR sky130_fd_sc_hd__diode_2
XFILLER_21_300 VGND VPWR sky130_fd_sc_hd__decap_4
XFILLER_16_138 VGND VPWR sky130_fd_sc_hd__fill_2
XFILLER_15_28 VGND VPWR sky130_fd_sc_hd__fill_2
XPHY_100 VGND VPWR sky130_fd_sc_hd__tapvpwrvgnd_1
XFILLER_0_259 VGND VPWR sky130_fd_sc_hd__decap_12
XPHY_188 VGND VPWR sky130_fd_sc_hd__tapvpwrvgnd_1
XPHY_177 VGND VPWR sky130_fd_sc_hd__tapvpwrvgnd_1
XPHY_166 VGND VPWR sky130_fd_sc_hd__tapvpwrvgnd_1
XPHY_155 VGND VPWR sky130_fd_sc_hd__tapvpwrvgnd_1
XPHY_144 VGND VPWR sky130_fd_sc_hd__tapvpwrvgnd_1
XFILLER_15_182 VGND VPWR sky130_fd_sc_hd__fill_1
XFILLER_15_160 VGND VPWR sky130_fd_sc_hd__fill_2
XPHY_133 VGND VPWR sky130_fd_sc_hd__tapvpwrvgnd_1
XFILLER_12_300 VGND VPWR sky130_fd_sc_hd__decap_12
XPHY_122 VGND VPWR sky130_fd_sc_hd__tapvpwrvgnd_1
XPHY_111 VGND VPWR sky130_fd_sc_hd__tapvpwrvgnd_1
XFILLER_8_337 VGND VPWR sky130_fd_sc_hd__decap_12
XPHY_2 VGND VPWR sky130_fd_sc_hd__decap_3
XFILLER_21_196 VGND VPWR sky130_fd_sc_hd__decap_12
XFILLER_21_152 VGND VPWR sky130_fd_sc_hd__decap_12
XFILLER_7_62 VGND VPWR sky130_fd_sc_hd__fill_2
XFILLER_16_93 VGND VPWR sky130_fd_sc_hd__fill_2
XFILLER_8_134 VGND VPWR sky130_fd_sc_hd__fill_2
XFILLER_8_101 VGND VPWR sky130_fd_sc_hd__fill_1
XFILLER_5_318 VGND VPWR sky130_fd_sc_hd__decap_12
XANTENNA_mem_bottom_ipin_2.sc_dff_compact_2_.sky130_fd_sc_hd__dfrbp_1_D mem_bottom_ipin_2.sc_dff_compact_1_.sky130_fd_sc_hd__dfrbp_1/Q
+ VGND VPWR sky130_fd_sc_hd__diode_2
XFILLER_5_104 VGND VPWR sky130_fd_sc_hd__decap_8
Xmem_bottom_ipin_6.sc_dff_compact_4_.sky130_fd_sc_hd__dfrbp_1 mem_bottom_ipin_6.sc_dff_compact_4_.sky130_fd_sc_hd__dfrbp_1/D
+ mem_bottom_ipin_6.sc_dff_compact_5_.sky130_fd_sc_hd__dfrbp_1/D mem_bottom_ipin_6.sc_dff_compact_4_.sky130_fd_sc_hd__dfrbp_1/Q_N
+ pReset clkbuf_3_5_0_prog_clk/X VGND VPWR sky130_fd_sc_hd__dfrbp_1
XFILLER_2_129 VGND VPWR sky130_fd_sc_hd__decap_12
XFILLER_1_184 VGND VPWR sky130_fd_sc_hd__decap_12
Xmem_bottom_ipin_3.sc_dff_compact_5_.sky130_fd_sc_hd__dfrbp_1 mem_bottom_ipin_3.sc_dff_compact_4_.sky130_fd_sc_hd__dfrbp_1/Q
+ mem_bottom_ipin_4.sc_dff_compact_0_.sky130_fd_sc_hd__dfrbp_1/D mem_bottom_ipin_3.sc_dff_compact_5_.sky130_fd_sc_hd__dfrbp_1/Q_N
+ pReset clkbuf_3_0_0_prog_clk/X VGND VPWR sky130_fd_sc_hd__dfrbp_1
XFILLER_20_228 VGND VPWR sky130_fd_sc_hd__decap_12
XFILLER_20_206 VGND VPWR sky130_fd_sc_hd__decap_8
XFILLER_18_28 VGND VPWR sky130_fd_sc_hd__decap_3
XFILLER_18_17 VGND VPWR sky130_fd_sc_hd__decap_4
XFILLER_19_306 VGND VPWR sky130_fd_sc_hd__fill_2
X_24_ chanx_left_in[4] chanx_right_out[4] VGND VPWR sky130_fd_sc_hd__buf_2
XFILLER_6_276 VGND VPWR sky130_fd_sc_hd__decap_12
XFILLER_1_86 VGND VPWR sky130_fd_sc_hd__decap_12
XANTENNA_mem_bottom_ipin_1.sc_dff_compact_3_.sky130_fd_sc_hd__dfrbp_1_RESET_B pReset
+ VGND VPWR sky130_fd_sc_hd__diode_2
XANTENNA_mem_bottom_ipin_3.sc_dff_compact_0_.sky130_fd_sc_hd__dfrbp_1_D mem_bottom_ipin_2.sc_dff_compact_5_.sky130_fd_sc_hd__dfrbp_1/Q
+ VGND VPWR sky130_fd_sc_hd__diode_2
XFILLER_3_257 VGND VPWR sky130_fd_sc_hd__decap_12
Xmem_bottom_ipin_1.sc_dff_compact_0_.sky130_fd_sc_hd__dfrbp_1 mem_bottom_ipin_1.sc_dff_compact_0_.sky130_fd_sc_hd__dfrbp_1/D
+ mem_bottom_ipin_1.sc_dff_compact_0_.sky130_fd_sc_hd__dfrbp_1/Q mem_bottom_ipin_1.sc_dff_compact_0_.sky130_fd_sc_hd__dfrbp_1/Q_N
+ pReset clkbuf_3_6_0_prog_clk/X VGND VPWR sky130_fd_sc_hd__dfrbp_1
XFILLER_19_114 VGND VPWR sky130_fd_sc_hd__decap_3
XFILLER_19_82 VGND VPWR sky130_fd_sc_hd__fill_1
XFILLER_19_60 VGND VPWR sky130_fd_sc_hd__fill_1
XFILLER_15_342 VGND VPWR sky130_fd_sc_hd__decap_8
XFILLER_18_191 VGND VPWR sky130_fd_sc_hd__decap_12
XANTENNA_mem_bottom_ipin_2.sc_dff_compact_5_.sky130_fd_sc_hd__dfrbp_1_D mem_bottom_ipin_2.sc_dff_compact_4_.sky130_fd_sc_hd__dfrbp_1/Q
+ VGND VPWR sky130_fd_sc_hd__diode_2
XANTENNA_mem_bottom_ipin_3.sc_dff_compact_4_.sky130_fd_sc_hd__dfrbp_1_RESET_B pReset