* NGSPICE file created from sb_3__3_.ext - technology: sky130A

* Black-box entry subcircuit for sky130_fd_sc_hd__fill_1 abstract view
.subckt sky130_fd_sc_hd__fill_1 VGND VPWR
.ends

* Black-box entry subcircuit for sky130_fd_sc_hd__ebufn_1 abstract view
.subckt sky130_fd_sc_hd__ebufn_1 A TE_B Z VGND VPWR
.ends

* Black-box entry subcircuit for sky130_fd_sc_hd__decap_8 abstract view
.subckt sky130_fd_sc_hd__decap_8 VGND VPWR
.ends

* Black-box entry subcircuit for sky130_fd_sc_hd__fill_2 abstract view
.subckt sky130_fd_sc_hd__fill_2 VGND VPWR
.ends

* Black-box entry subcircuit for sky130_fd_sc_hd__dfrbp_1 abstract view
.subckt sky130_fd_sc_hd__dfrbp_1 D Q Q_N RESET_B CLK VGND VPWR
.ends

* Black-box entry subcircuit for sky130_fd_sc_hd__diode_2 abstract view
.subckt sky130_fd_sc_hd__diode_2 DIODE VGND VPWR
.ends

* Black-box entry subcircuit for sky130_fd_sc_hd__decap_4 abstract view
.subckt sky130_fd_sc_hd__decap_4 VGND VPWR
.ends

* Black-box entry subcircuit for sky130_fd_sc_hd__inv_1 abstract view
.subckt sky130_fd_sc_hd__inv_1 A Y VGND VPWR
.ends

* Black-box entry subcircuit for sky130_fd_sc_hd__buf_2 abstract view
.subckt sky130_fd_sc_hd__buf_2 A X VGND VPWR
.ends

* Black-box entry subcircuit for sky130_fd_sc_hd__decap_12 abstract view
.subckt sky130_fd_sc_hd__decap_12 VGND VPWR
.ends

* Black-box entry subcircuit for sky130_fd_sc_hd__decap_6 abstract view
.subckt sky130_fd_sc_hd__decap_6 VGND VPWR
.ends

* Black-box entry subcircuit for sky130_fd_sc_hd__decap_3 abstract view
.subckt sky130_fd_sc_hd__decap_3 VGND VPWR
.ends

* Black-box entry subcircuit for sky130_fd_sc_hd__clkbuf_1 abstract view
.subckt sky130_fd_sc_hd__clkbuf_1 A X VGND VPWR
.ends

* Black-box entry subcircuit for sky130_fd_sc_hd__conb_1 abstract view
.subckt sky130_fd_sc_hd__conb_1 HI LO VGND VPWR
.ends

* Black-box entry subcircuit for sky130_fd_sc_hd__tapvpwrvgnd_1 abstract view
.subckt sky130_fd_sc_hd__tapvpwrvgnd_1 VGND VPWR
.ends

* Black-box entry subcircuit for sky130_fd_sc_hd__clkbuf_16 abstract view
.subckt sky130_fd_sc_hd__clkbuf_16 A X VGND VPWR
.ends

* Black-box entry subcircuit for sky130_fd_sc_hd__inv_8 abstract view
.subckt sky130_fd_sc_hd__inv_8 A Y VGND VPWR
.ends

.subckt sb_3__3_ bottom_left_grid_pin_13_ bottom_right_grid_pin_11_ bottom_right_grid_pin_13_
+ bottom_right_grid_pin_15_ bottom_right_grid_pin_1_ bottom_right_grid_pin_3_ bottom_right_grid_pin_5_
+ bottom_right_grid_pin_7_ bottom_right_grid_pin_9_ ccff_head ccff_tail chanx_left_in[0]
+ chanx_left_in[1] chanx_left_in[2] chanx_left_in[3] chanx_left_in[4] chanx_left_in[5]
+ chanx_left_in[6] chanx_left_in[7] chanx_left_in[8] chanx_left_out[0] chanx_left_out[1]
+ chanx_left_out[2] chanx_left_out[3] chanx_left_out[4] chanx_left_out[5] chanx_left_out[6]
+ chanx_left_out[7] chanx_left_out[8] chany_bottom_in[0] chany_bottom_in[1] chany_bottom_in[2]
+ chany_bottom_in[3] chany_bottom_in[4] chany_bottom_in[5] chany_bottom_in[6] chany_bottom_in[7]
+ chany_bottom_in[8] chany_bottom_out[0] chany_bottom_out[1] chany_bottom_out[2] chany_bottom_out[3]
+ chany_bottom_out[4] chany_bottom_out[5] chany_bottom_out[6] chany_bottom_out[7]
+ chany_bottom_out[8] left_bottom_grid_pin_12_ left_top_grid_pin_11_ left_top_grid_pin_13_
+ left_top_grid_pin_15_ left_top_grid_pin_1_ left_top_grid_pin_3_ left_top_grid_pin_5_
+ left_top_grid_pin_7_ left_top_grid_pin_9_ pReset prog_clk VPWR VGND
XFILLER_22_122 VGND VPWR sky130_fd_sc_hd__fill_1
Xmux_left_track_3.mux_l2_in_0_.TGATE_0_.sky130_fd_sc_hd__ebufn_1 mux_left_track_3.mux_l1_in_0_.TGATE_1_.sky130_fd_sc_hd__ebufn_1/Z
+ mux_left_track_3.mux_l2_in_0_.TGATE_0_.sky130_fd_sc_hd__ebufn_1/TE_B mux_left_track_3.tap_buf4_0_.sky130_fd_sc_hd__inv_1/A
+ VGND VPWR sky130_fd_sc_hd__ebufn_1
XFILLER_26_63 VGND VPWR sky130_fd_sc_hd__decap_8
XFILLER_13_111 VGND VPWR sky130_fd_sc_hd__decap_8
XFILLER_13_100 VGND VPWR sky130_fd_sc_hd__fill_2
XFILLER_9_148 VGND VPWR sky130_fd_sc_hd__fill_2
XFILLER_9_137 VGND VPWR sky130_fd_sc_hd__decap_8
XFILLER_9_126 VGND VPWR sky130_fd_sc_hd__fill_2
Xmux_bottom_track_15.mux_l1_in_0_.TGATE_1_.sky130_fd_sc_hd__ebufn_1 mux_bottom_track_15.INVTX1_1_.sky130_fd_sc_hd__inv_1/Y
+ mux_bottom_track_15.mux_l1_in_0_.TGATE_1_.sky130_fd_sc_hd__ebufn_1/TE_B mux_bottom_track_15.mux_l1_in_0_.TGATE_1_.sky130_fd_sc_hd__ebufn_1/Z
+ VGND VPWR sky130_fd_sc_hd__ebufn_1
Xmux_bottom_track_5.mux_l1_in_0_.TGATE_1_.sky130_fd_sc_hd__ebufn_1 mux_bottom_track_5.INVTX1_1_.sky130_fd_sc_hd__inv_1/Y
+ mux_bottom_track_5.mux_l1_in_0_.TGATE_1_.sky130_fd_sc_hd__ebufn_1/TE_B mux_bottom_track_5.mux_l1_in_0_.TGATE_1_.sky130_fd_sc_hd__ebufn_1/Z
+ VGND VPWR sky130_fd_sc_hd__ebufn_1
Xmem_left_track_5.sc_dff_compact_1_.sky130_fd_sc_hd__dfrbp_1 mem_left_track_5.sc_dff_compact_1_.sky130_fd_sc_hd__dfrbp_1/D
+ mem_left_track_5.sc_dff_compact_1_.sky130_fd_sc_hd__dfrbp_1/Q mem_left_track_5.sc_dff_compact_1_.sky130_fd_sc_hd__dfrbp_1/Q_N
+ _19_/Y clkbuf_2_3_0_prog_clk/X VGND VPWR sky130_fd_sc_hd__dfrbp_1
XFILLER_12_32 VGND VPWR sky130_fd_sc_hd__fill_2
Xmem_bottom_track_1.sc_dff_compact_1_.sky130_fd_sc_hd__dfrbp_1 mem_bottom_track_1.sc_dff_compact_1_.sky130_fd_sc_hd__dfrbp_1/D
+ mem_bottom_track_3.sc_dff_compact_0_.sky130_fd_sc_hd__dfrbp_1/D mem_bottom_track_1.sc_dff_compact_1_.sky130_fd_sc_hd__dfrbp_1/Q_N
+ _19_/Y clkbuf_2_0_0_prog_clk/X VGND VPWR sky130_fd_sc_hd__dfrbp_1
XANTENNA_mem_bottom_track_5.sc_dff_compact_0_.sky130_fd_sc_hd__dfrbp_1_CLK clkbuf_2_2_0_prog_clk/X
+ VGND VPWR sky130_fd_sc_hd__diode_2
XANTENNA_mux_left_track_7.mux_l2_in_0_.TGATE_1_.sky130_fd_sc_hd__ebufn_1_A _26_/HI
+ VGND VPWR sky130_fd_sc_hd__diode_2
Xmux_left_track_13.mux_l1_in_0_.TGATE_0_.sky130_fd_sc_hd__ebufn_1 mux_left_track_13.INVTX1_0_.sky130_fd_sc_hd__inv_1/Y
+ mux_left_track_13.mux_l1_in_0_.TGATE_0_.sky130_fd_sc_hd__ebufn_1/TE_B mux_left_track_13.mux_l1_in_0_.TGATE_1_.sky130_fd_sc_hd__ebufn_1/Z
+ VGND VPWR sky130_fd_sc_hd__ebufn_1
XFILLER_23_53 VGND VPWR sky130_fd_sc_hd__fill_2
XANTENNA_mem_bottom_track_17.sc_dff_compact_0_.sky130_fd_sc_hd__dfrbp_1_CLK clkbuf_2_2_0_prog_clk/X
+ VGND VPWR sky130_fd_sc_hd__diode_2
XANTENNA_mux_bottom_track_3.mux_l1_in_0_.TGATE_0_.sky130_fd_sc_hd__ebufn_1_A mux_bottom_track_3.INVTX1_0_.sky130_fd_sc_hd__inv_1/Y
+ VGND VPWR sky130_fd_sc_hd__diode_2
XFILLER_2_132 VGND VPWR sky130_fd_sc_hd__decap_4
XFILLER_2_154 VGND VPWR sky130_fd_sc_hd__decap_4
XFILLER_9_22 VGND VPWR sky130_fd_sc_hd__fill_2
XANTENNA_clkbuf_2_1_0_prog_clk_A clkbuf_2_1_0_prog_clk/A VGND VPWR sky130_fd_sc_hd__diode_2
Xmux_bottom_track_3.tap_buf4_0_.sky130_fd_sc_hd__inv_1 mux_bottom_track_3.tap_buf4_0_.sky130_fd_sc_hd__inv_1/A
+ _54_/A VGND VPWR sky130_fd_sc_hd__inv_1
X_49_ _49_/A chany_bottom_out[6] VGND VPWR sky130_fd_sc_hd__buf_2
XFILLER_18_53 VGND VPWR sky130_fd_sc_hd__fill_2
XFILLER_6_45 VGND VPWR sky130_fd_sc_hd__decap_8
XFILLER_25_120 VGND VPWR sky130_fd_sc_hd__fill_2
XANTENNA_mem_left_track_5.sc_dff_compact_1_.sky130_fd_sc_hd__dfrbp_1_CLK clkbuf_2_3_0_prog_clk/X
+ VGND VPWR sky130_fd_sc_hd__diode_2
XFILLER_15_54 VGND VPWR sky130_fd_sc_hd__decap_4
XFILLER_15_43 VGND VPWR sky130_fd_sc_hd__fill_2
XANTENNA_mem_bottom_track_11.sc_dff_compact_1_.sky130_fd_sc_hd__dfrbp_1_RESET_B _19_/Y
+ VGND VPWR sky130_fd_sc_hd__diode_2
XFILLER_16_131 VGND VPWR sky130_fd_sc_hd__decap_4
XFILLER_16_120 VGND VPWR sky130_fd_sc_hd__decap_4
XANTENNA_mux_bottom_track_17.mux_l1_in_0_.TGATE_1_.sky130_fd_sc_hd__ebufn_1_A mux_bottom_track_17.INVTX1_1_.sky130_fd_sc_hd__inv_1/Y
+ VGND VPWR sky130_fd_sc_hd__diode_2
XANTENNA_mem_left_track_17.sc_dff_compact_0_.sky130_fd_sc_hd__dfrbp_1_RESET_B _19_/Y
+ VGND VPWR sky130_fd_sc_hd__diode_2
XFILLER_26_75 VGND VPWR sky130_fd_sc_hd__decap_12
XANTENNA_mux_bottom_track_13.tap_buf4_0_.sky130_fd_sc_hd__inv_1_A mux_bottom_track_13.tap_buf4_0_.sky130_fd_sc_hd__inv_1/A
+ VGND VPWR sky130_fd_sc_hd__diode_2
XFILLER_3_35 VGND VPWR sky130_fd_sc_hd__fill_2
Xmux_bottom_track_1.INVTX1_0_.sky130_fd_sc_hd__inv_1 bottom_right_grid_pin_1_ mux_bottom_track_1.INVTX1_0_.sky130_fd_sc_hd__inv_1/Y
+ VGND VPWR sky130_fd_sc_hd__inv_1
XFILLER_12_11 VGND VPWR sky130_fd_sc_hd__fill_2
XFILLER_23_10 VGND VPWR sky130_fd_sc_hd__fill_2
XANTENNA_mem_bottom_track_3.sc_dff_compact_1_.sky130_fd_sc_hd__dfrbp_1_D mem_bottom_track_3.sc_dff_compact_0_.sky130_fd_sc_hd__dfrbp_1/Q
+ VGND VPWR sky130_fd_sc_hd__diode_2
Xmux_bottom_track_13.mux_l1_in_0_.TGATE_0_.sky130_fd_sc_hd__ebufn_1 mux_bottom_track_13.INVTX1_0_.sky130_fd_sc_hd__inv_1/Y
+ mux_bottom_track_13.mux_l1_in_0_.TGATE_0_.sky130_fd_sc_hd__ebufn_1/TE_B mux_bottom_track_13.mux_l1_in_0_.TGATE_1_.sky130_fd_sc_hd__ebufn_1/Z
+ VGND VPWR sky130_fd_sc_hd__ebufn_1
XFILLER_23_76 VGND VPWR sky130_fd_sc_hd__fill_2
XFILLER_23_65 VGND VPWR sky130_fd_sc_hd__fill_2
XANTENNA_mux_left_track_15.mux_l1_in_0_.TGATE_1_.sky130_fd_sc_hd__ebufn_1_A mux_left_track_15.INVTX1_1_.sky130_fd_sc_hd__inv_1/Y
+ VGND VPWR sky130_fd_sc_hd__diode_2
Xmux_bottom_track_3.mux_l1_in_0_.TGATE_0_.sky130_fd_sc_hd__ebufn_1 mux_bottom_track_3.INVTX1_0_.sky130_fd_sc_hd__inv_1/Y
+ mux_bottom_track_3.mux_l1_in_0_.TGATE_0_.sky130_fd_sc_hd__ebufn_1/TE_B mux_bottom_track_3.mux_l1_in_0_.TGATE_1_.sky130_fd_sc_hd__ebufn_1/Z
+ VGND VPWR sky130_fd_sc_hd__ebufn_1
XFILLER_2_144 VGND VPWR sky130_fd_sc_hd__decap_8
X_48_ _48_/A chany_bottom_out[7] VGND VPWR sky130_fd_sc_hd__buf_2
Xmux_left_track_3.mux_l1_in_0_.TGATE_1_.sky130_fd_sc_hd__ebufn_1 mux_left_track_3.INVTX1_1_.sky130_fd_sc_hd__inv_1/Y
+ mux_left_track_3.mux_l1_in_0_.TGATE_1_.sky130_fd_sc_hd__ebufn_1/TE_B mux_left_track_3.mux_l1_in_0_.TGATE_1_.sky130_fd_sc_hd__ebufn_1/Z
+ VGND VPWR sky130_fd_sc_hd__ebufn_1
XFILLER_6_24 VGND VPWR sky130_fd_sc_hd__decap_6
XANTENNA_mem_left_track_3.sc_dff_compact_0_.sky130_fd_sc_hd__dfrbp_1_RESET_B _19_/Y
+ VGND VPWR sky130_fd_sc_hd__diode_2
Xmem_left_track_11.sc_dff_compact_0_.sky130_fd_sc_hd__dfrbp_1 mem_left_track_9.sc_dff_compact_1_.sky130_fd_sc_hd__dfrbp_1/Q
+ mem_left_track_11.sc_dff_compact_0_.sky130_fd_sc_hd__dfrbp_1/Q mem_left_track_11.sc_dff_compact_0_.sky130_fd_sc_hd__dfrbp_1/Q_N
+ _19_/Y clkbuf_2_3_0_prog_clk/X VGND VPWR sky130_fd_sc_hd__dfrbp_1
XFILLER_16_154 VGND VPWR sky130_fd_sc_hd__decap_4
XFILLER_26_87 VGND VPWR sky130_fd_sc_hd__decap_6
XFILLER_26_21 VGND VPWR sky130_fd_sc_hd__decap_8
XANTENNA_mem_left_track_5.sc_dff_compact_1_.sky130_fd_sc_hd__dfrbp_1_RESET_B _19_/Y
+ VGND VPWR sky130_fd_sc_hd__diode_2
XANTENNA_mem_bottom_track_15.sc_dff_compact_1_.sky130_fd_sc_hd__dfrbp_1_D mem_bottom_track_15.sc_dff_compact_1_.sky130_fd_sc_hd__dfrbp_1/D
+ VGND VPWR sky130_fd_sc_hd__diode_2
XANTENNA_mem_bottom_track_9.sc_dff_compact_0_.sky130_fd_sc_hd__dfrbp_1_RESET_B _19_/Y
+ VGND VPWR sky130_fd_sc_hd__diode_2
Xmux_bottom_track_17.INVTX1_1_.sky130_fd_sc_hd__inv_1 chanx_left_in[0] mux_bottom_track_17.INVTX1_1_.sky130_fd_sc_hd__inv_1/Y
+ VGND VPWR sky130_fd_sc_hd__inv_1
XFILLER_12_23 VGND VPWR sky130_fd_sc_hd__fill_2
XANTENNA_mux_left_track_7.mux_l1_in_0_.TGATE_1_.sky130_fd_sc_hd__ebufn_1_A mux_left_track_7.INVTX1_1_.sky130_fd_sc_hd__inv_1/Y
+ VGND VPWR sky130_fd_sc_hd__diode_2
XFILLER_5_131 VGND VPWR sky130_fd_sc_hd__decap_4
XFILLER_5_142 VGND VPWR sky130_fd_sc_hd__fill_2
XFILLER_5_153 VGND VPWR sky130_fd_sc_hd__decap_4
XFILLER_23_22 VGND VPWR sky130_fd_sc_hd__fill_2
XFILLER_3_3 VGND VPWR sky130_fd_sc_hd__decap_4
X_47_ _47_/A chany_bottom_out[8] VGND VPWR sky130_fd_sc_hd__buf_2
XFILLER_9_57 VGND VPWR sky130_fd_sc_hd__fill_2
XFILLER_18_88 VGND VPWR sky130_fd_sc_hd__fill_2
XFILLER_18_22 VGND VPWR sky130_fd_sc_hd__fill_2
XFILLER_18_11 VGND VPWR sky130_fd_sc_hd__fill_2
XANTENNA_mux_bottom_track_1.mux_l2_in_0_.TGATE_0_.sky130_fd_sc_hd__ebufn_1_A mux_bottom_track_1.mux_l1_in_0_.TGATE_1_.sky130_fd_sc_hd__ebufn_1/Z
+ VGND VPWR sky130_fd_sc_hd__diode_2
Xmem_left_track_1.sc_dff_compact_1_.sky130_fd_sc_hd__dfrbp_1 mem_left_track_1.sc_dff_compact_0_.sky130_fd_sc_hd__dfrbp_1/Q
+ mem_left_track_3.sc_dff_compact_0_.sky130_fd_sc_hd__dfrbp_1/D mem_left_track_1.sc_dff_compact_1_.sky130_fd_sc_hd__dfrbp_1/Q_N
+ _19_/Y clkbuf_2_2_0_prog_clk/X VGND VPWR sky130_fd_sc_hd__dfrbp_1
XANTENNA_mux_bottom_track_11.INVTX1_1_.sky130_fd_sc_hd__inv_1_A chanx_left_in[6] VGND
+ VPWR sky130_fd_sc_hd__diode_2
XFILLER_15_8 VGND VPWR sky130_fd_sc_hd__fill_2
XANTENNA_mux_left_track_3.INVTX1_0_.sky130_fd_sc_hd__inv_1_A chany_bottom_in[0] VGND
+ VPWR sky130_fd_sc_hd__diode_2
XFILLER_20_89 VGND VPWR sky130_fd_sc_hd__fill_1
XFILLER_20_78 VGND VPWR sky130_fd_sc_hd__fill_2
XFILLER_20_23 VGND VPWR sky130_fd_sc_hd__fill_2
XFILLER_20_12 VGND VPWR sky130_fd_sc_hd__fill_2
XANTENNA_clkbuf_1_0_0_prog_clk_A clkbuf_0_prog_clk/X VGND VPWR sky130_fd_sc_hd__diode_2
XFILLER_1_91 VGND VPWR sky130_fd_sc_hd__fill_2
XFILLER_6_36 VGND VPWR sky130_fd_sc_hd__fill_1
Xmux_left_track_3.INVTX1_1_.sky130_fd_sc_hd__inv_1 left_top_grid_pin_3_ mux_left_track_3.INVTX1_1_.sky130_fd_sc_hd__inv_1/Y
+ VGND VPWR sky130_fd_sc_hd__inv_1
Xmux_left_track_13.INVTX1_1_.sky130_fd_sc_hd__inv_1 left_top_grid_pin_13_ mux_left_track_13.INVTX1_1_.sky130_fd_sc_hd__inv_1/Y
+ VGND VPWR sky130_fd_sc_hd__inv_1
XFILLER_25_155 VGND VPWR sky130_fd_sc_hd__decap_3
XFILLER_15_89 VGND VPWR sky130_fd_sc_hd__decap_4
XFILLER_15_12 VGND VPWR sky130_fd_sc_hd__fill_2
Xmux_left_track_1.mux_l1_in_0_.TGATE_0_.sky130_fd_sc_hd__ebufn_1 mux_left_track_1.INVTX1_0_.sky130_fd_sc_hd__inv_1/Y
+ mux_left_track_1.mux_l1_in_0_.TGATE_0_.sky130_fd_sc_hd__ebufn_1/TE_B mux_left_track_1.mux_l1_in_0_.TGATE_1_.sky130_fd_sc_hd__ebufn_1/Z
+ VGND VPWR sky130_fd_sc_hd__ebufn_1
XFILLER_22_125 VGND VPWR sky130_fd_sc_hd__decap_12
Xclkbuf_2_1_0_prog_clk clkbuf_2_1_0_prog_clk/A clkbuf_2_1_0_prog_clk/X VGND VPWR sky130_fd_sc_hd__clkbuf_1
XANTENNA_mux_left_track_5.tap_buf4_0_.sky130_fd_sc_hd__inv_1_A mux_left_track_5.tap_buf4_0_.sky130_fd_sc_hd__inv_1/A
+ VGND VPWR sky130_fd_sc_hd__diode_2
XANTENNA_mem_bottom_track_5.sc_dff_compact_0_.sky130_fd_sc_hd__dfrbp_1_D mem_bottom_track_5.sc_dff_compact_0_.sky130_fd_sc_hd__dfrbp_1/D
+ VGND VPWR sky130_fd_sc_hd__diode_2
XFILLER_9_107 VGND VPWR sky130_fd_sc_hd__decap_4
XANTENNA_mux_bottom_track_15.mux_l2_in_0_.TGATE_1_.sky130_fd_sc_hd__ebufn_1_A _31_/HI
+ VGND VPWR sky130_fd_sc_hd__diode_2
XFILLER_7_90 VGND VPWR sky130_fd_sc_hd__fill_2
XFILLER_12_79 VGND VPWR sky130_fd_sc_hd__fill_2
XANTENNA_mem_left_track_17.sc_dff_compact_1_.sky130_fd_sc_hd__dfrbp_1_CLK clkbuf_2_1_0_prog_clk/X
+ VGND VPWR sky130_fd_sc_hd__diode_2
XANTENNA_mem_bottom_track_11.sc_dff_compact_1_.sky130_fd_sc_hd__dfrbp_1_CLK clkbuf_2_1_0_prog_clk/X
+ VGND VPWR sky130_fd_sc_hd__diode_2
X_46_ _46_/A chanx_left_out[0] VGND VPWR sky130_fd_sc_hd__buf_2
XANTENNA_mux_left_track_13.mux_l2_in_0_.TGATE_1_.sky130_fd_sc_hd__ebufn_1_A _21_/HI
+ VGND VPWR sky130_fd_sc_hd__diode_2
XANTENNA_mux_bottom_track_5.INVTX1_1_.sky130_fd_sc_hd__inv_1_A chanx_left_in[3] VGND
+ VPWR sky130_fd_sc_hd__diode_2
X_29_ _29_/HI _29_/LO VGND VPWR sky130_fd_sc_hd__conb_1
XFILLER_1_70 VGND VPWR sky130_fd_sc_hd__decap_3
XFILLER_20_35 VGND VPWR sky130_fd_sc_hd__decap_12
Xmux_left_track_13.tap_buf4_0_.sky130_fd_sc_hd__inv_1 mux_left_track_13.tap_buf4_0_.sky130_fd_sc_hd__inv_1/A
+ _40_/A VGND VPWR sky130_fd_sc_hd__inv_1
XANTENNA_mem_bottom_track_17.sc_dff_compact_0_.sky130_fd_sc_hd__dfrbp_1_D mem_bottom_track_17.sc_dff_compact_0_.sky130_fd_sc_hd__dfrbp_1/D
+ VGND VPWR sky130_fd_sc_hd__diode_2
XFILLER_25_123 VGND VPWR sky130_fd_sc_hd__decap_12
Xmux_left_track_11.mux_l2_in_0_.TGATE_1_.sky130_fd_sc_hd__ebufn_1 _20_/HI mux_left_track_11.mux_l2_in_0_.TGATE_1_.sky130_fd_sc_hd__ebufn_1/TE_B
+ mux_left_track_11.tap_buf4_0_.sky130_fd_sc_hd__inv_1/A VGND VPWR sky130_fd_sc_hd__ebufn_1
XFILLER_11_3 VGND VPWR sky130_fd_sc_hd__decap_3
XFILLER_22_137 VGND VPWR sky130_fd_sc_hd__decap_12
XFILLER_13_104 VGND VPWR sky130_fd_sc_hd__fill_2
XFILLER_13_148 VGND VPWR sky130_fd_sc_hd__fill_2
XFILLER_13_137 VGND VPWR sky130_fd_sc_hd__fill_2
XFILLER_13_126 VGND VPWR sky130_fd_sc_hd__fill_2
XFILLER_10_129 VGND VPWR sky130_fd_sc_hd__decap_8
XFILLER_10_118 VGND VPWR sky130_fd_sc_hd__decap_8
XFILLER_10_107 VGND VPWR sky130_fd_sc_hd__decap_8
XANTENNA_mux_left_track_5.mux_l2_in_0_.TGATE_1_.sky130_fd_sc_hd__ebufn_1_A _25_/HI
+ VGND VPWR sky130_fd_sc_hd__diode_2
XANTENNA_mux_bottom_track_11.tap_buf4_0_.sky130_fd_sc_hd__inv_1_A mux_bottom_track_11.tap_buf4_0_.sky130_fd_sc_hd__inv_1/A
+ VGND VPWR sky130_fd_sc_hd__diode_2
XFILLER_23_57 VGND VPWR sky130_fd_sc_hd__decap_4
Xmux_left_track_7.tap_buf4_0_.sky130_fd_sc_hd__inv_1 mux_left_track_7.tap_buf4_0_.sky130_fd_sc_hd__inv_1/A
+ _43_/A VGND VPWR sky130_fd_sc_hd__inv_1
XANTENNA_mux_bottom_track_1.mux_l1_in_0_.TGATE_0_.sky130_fd_sc_hd__ebufn_1_A mux_bottom_track_1.INVTX1_0_.sky130_fd_sc_hd__inv_1/Y
+ VGND VPWR sky130_fd_sc_hd__diode_2
XFILLER_9_26 VGND VPWR sky130_fd_sc_hd__fill_2
XFILLER_18_57 VGND VPWR sky130_fd_sc_hd__fill_2
XFILLER_18_46 VGND VPWR sky130_fd_sc_hd__decap_4
XFILLER_18_35 VGND VPWR sky130_fd_sc_hd__fill_2
XANTENNA_mux_left_track_11.INVTX1_0_.sky130_fd_sc_hd__inv_1_A chany_bottom_in[4] VGND
+ VPWR sky130_fd_sc_hd__diode_2
X_45_ _45_/A chanx_left_out[1] VGND VPWR sky130_fd_sc_hd__buf_2
XANTENNA_mem_left_track_15.sc_dff_compact_0_.sky130_fd_sc_hd__dfrbp_1_RESET_B _19_/Y
+ VGND VPWR sky130_fd_sc_hd__diode_2
Xmux_left_track_9.mux_l1_in_0_.TGATE_0_.sky130_fd_sc_hd__ebufn_1 mux_left_track_9.INVTX1_0_.sky130_fd_sc_hd__inv_1/Y
+ mux_left_track_9.mux_l1_in_0_.TGATE_0_.sky130_fd_sc_hd__ebufn_1/TE_B mux_left_track_9.mux_l1_in_0_.TGATE_1_.sky130_fd_sc_hd__ebufn_1/Z
+ VGND VPWR sky130_fd_sc_hd__ebufn_1
XANTENNA_mem_left_track_17.sc_dff_compact_1_.sky130_fd_sc_hd__dfrbp_1_RESET_B _19_/Y
+ VGND VPWR sky130_fd_sc_hd__diode_2
X_28_ _28_/HI _28_/LO VGND VPWR sky130_fd_sc_hd__conb_1
XFILLER_20_47 VGND VPWR sky130_fd_sc_hd__decap_4
Xmux_bottom_track_7.INVTX1_1_.sky130_fd_sc_hd__inv_1 chanx_left_in[4] mux_bottom_track_7.INVTX1_1_.sky130_fd_sc_hd__inv_1/Y
+ VGND VPWR sky130_fd_sc_hd__inv_1
XFILLER_6_16 VGND VPWR sky130_fd_sc_hd__fill_2
XFILLER_25_135 VGND VPWR sky130_fd_sc_hd__decap_12
XFILLER_15_58 VGND VPWR sky130_fd_sc_hd__fill_1
XFILLER_22_149 VGND VPWR sky130_fd_sc_hd__decap_4
XFILLER_22_116 VGND VPWR sky130_fd_sc_hd__decap_6
XANTENNA_mux_bottom_track_15.mux_l1_in_0_.TGATE_1_.sky130_fd_sc_hd__ebufn_1_A mux_bottom_track_15.INVTX1_1_.sky130_fd_sc_hd__inv_1/Y
+ VGND VPWR sky130_fd_sc_hd__diode_2
XANTENNA_mem_bottom_track_7.sc_dff_compact_1_.sky130_fd_sc_hd__dfrbp_1_CLK clkbuf_2_0_0_prog_clk/X
+ VGND VPWR sky130_fd_sc_hd__diode_2
Xmux_bottom_track_11.mux_l2_in_0_.TGATE_1_.sky130_fd_sc_hd__ebufn_1 _29_/HI mux_bottom_track_11.mux_l2_in_0_.TGATE_1_.sky130_fd_sc_hd__ebufn_1/TE_B
+ mux_bottom_track_11.tap_buf4_0_.sky130_fd_sc_hd__inv_1/A VGND VPWR sky130_fd_sc_hd__ebufn_1
XFILLER_7_70 VGND VPWR sky130_fd_sc_hd__fill_2
Xmux_bottom_track_1.mux_l2_in_0_.TGATE_1_.sky130_fd_sc_hd__ebufn_1 _28_/HI mux_bottom_track_1.mux_l2_in_0_.TGATE_1_.sky130_fd_sc_hd__ebufn_1/TE_B
+ mux_bottom_track_1.tap_buf4_0_.sky130_fd_sc_hd__inv_1/A VGND VPWR sky130_fd_sc_hd__ebufn_1
XFILLER_26_46 VGND VPWR sky130_fd_sc_hd__decap_12
XFILLER_26_35 VGND VPWR sky130_fd_sc_hd__decap_8
XFILLER_26_13 VGND VPWR sky130_fd_sc_hd__fill_2
XANTENNA_mux_bottom_track_9.tap_buf4_0_.sky130_fd_sc_hd__inv_1_A mux_bottom_track_9.tap_buf4_0_.sky130_fd_sc_hd__inv_1/A
+ VGND VPWR sky130_fd_sc_hd__diode_2
XFILLER_3_39 VGND VPWR sky130_fd_sc_hd__fill_2
XFILLER_12_59 VGND VPWR sky130_fd_sc_hd__decap_3
XFILLER_12_15 VGND VPWR sky130_fd_sc_hd__fill_2
Xmem_bottom_track_15.sc_dff_compact_0_.sky130_fd_sc_hd__dfrbp_1 mem_bottom_track_13.sc_dff_compact_1_.sky130_fd_sc_hd__dfrbp_1/Q
+ mem_bottom_track_15.sc_dff_compact_1_.sky130_fd_sc_hd__dfrbp_1/D mem_bottom_track_15.sc_dff_compact_0_.sky130_fd_sc_hd__dfrbp_1/Q_N
+ _19_/Y clkbuf_2_1_0_prog_clk/X VGND VPWR sky130_fd_sc_hd__dfrbp_1
XANTENNA_mux_left_track_9.INVTX1_1_.sky130_fd_sc_hd__inv_1_A left_top_grid_pin_9_
+ VGND VPWR sky130_fd_sc_hd__diode_2
XFILLER_23_69 VGND VPWR sky130_fd_sc_hd__fill_2
XANTENNA_mem_left_track_1.sc_dff_compact_0_.sky130_fd_sc_hd__dfrbp_1_RESET_B _19_/Y
+ VGND VPWR sky130_fd_sc_hd__diode_2
XANTENNA_mux_left_track_13.mux_l1_in_0_.TGATE_1_.sky130_fd_sc_hd__ebufn_1_A mux_left_track_13.INVTX1_1_.sky130_fd_sc_hd__inv_1/Y
+ VGND VPWR sky130_fd_sc_hd__diode_2
X_44_ _44_/A chanx_left_out[2] VGND VPWR sky130_fd_sc_hd__buf_2
XANTENNA_mem_left_track_3.sc_dff_compact_1_.sky130_fd_sc_hd__dfrbp_1_RESET_B _19_/Y
+ VGND VPWR sky130_fd_sc_hd__diode_2
XANTENNA_mem_left_track_5.sc_dff_compact_0_.sky130_fd_sc_hd__dfrbp_1_CLK clkbuf_2_3_0_prog_clk/X
+ VGND VPWR sky130_fd_sc_hd__diode_2
Xmux_bottom_track_13.INVTX1_1_.sky130_fd_sc_hd__inv_1 chanx_left_in[7] mux_bottom_track_13.INVTX1_1_.sky130_fd_sc_hd__inv_1/Y
+ VGND VPWR sky130_fd_sc_hd__inv_1
XANTENNA_mem_bottom_track_7.sc_dff_compact_0_.sky130_fd_sc_hd__dfrbp_1_RESET_B _19_/Y
+ VGND VPWR sky130_fd_sc_hd__diode_2
X_27_ _27_/HI _27_/LO VGND VPWR sky130_fd_sc_hd__conb_1
XFILLER_1_83 VGND VPWR sky130_fd_sc_hd__decap_6
Xmem_left_track_17.sc_dff_compact_1_.sky130_fd_sc_hd__dfrbp_1 mem_left_track_17.sc_dff_compact_0_.sky130_fd_sc_hd__dfrbp_1/Q
+ ccff_tail mem_left_track_17.sc_dff_compact_1_.sky130_fd_sc_hd__dfrbp_1/Q_N _19_/Y
+ clkbuf_2_1_0_prog_clk/X VGND VPWR sky130_fd_sc_hd__dfrbp_1
XANTENNA_mem_bottom_track_9.sc_dff_compact_1_.sky130_fd_sc_hd__dfrbp_1_RESET_B _19_/Y
+ VGND VPWR sky130_fd_sc_hd__diode_2
XANTENNA_mux_bottom_track_13.INVTX1_0_.sky130_fd_sc_hd__inv_1_A bottom_right_grid_pin_13_
+ VGND VPWR sky130_fd_sc_hd__diode_2
XFILLER_19_111 VGND VPWR sky130_fd_sc_hd__decap_4
XFILLER_19_100 VGND VPWR sky130_fd_sc_hd__fill_2
XFILLER_10_81 VGND VPWR sky130_fd_sc_hd__decap_8
XFILLER_25_147 VGND VPWR sky130_fd_sc_hd__decap_8
XPHY_120 VGND VPWR sky130_fd_sc_hd__tapvpwrvgnd_1
XPHY_0 VGND VPWR sky130_fd_sc_hd__decap_3
XFILLER_26_58 VGND VPWR sky130_fd_sc_hd__decap_4
Xmem_bottom_track_9.sc_dff_compact_0_.sky130_fd_sc_hd__dfrbp_1 mem_bottom_track_7.sc_dff_compact_1_.sky130_fd_sc_hd__dfrbp_1/Q
+ mem_bottom_track_9.sc_dff_compact_1_.sky130_fd_sc_hd__dfrbp_1/D mem_bottom_track_9.sc_dff_compact_0_.sky130_fd_sc_hd__dfrbp_1/Q_N
+ _19_/Y clkbuf_2_0_0_prog_clk/X VGND VPWR sky130_fd_sc_hd__dfrbp_1
XFILLER_3_18 VGND VPWR sky130_fd_sc_hd__fill_2
XFILLER_8_154 VGND VPWR sky130_fd_sc_hd__decap_4
XFILLER_12_27 VGND VPWR sky130_fd_sc_hd__fill_2
XANTENNA_mux_left_track_5.mux_l1_in_0_.TGATE_1_.sky130_fd_sc_hd__ebufn_1_A mux_left_track_5.INVTX1_1_.sky130_fd_sc_hd__inv_1/Y
+ VGND VPWR sky130_fd_sc_hd__diode_2
Xclkbuf_2_0_0_prog_clk clkbuf_2_1_0_prog_clk/A clkbuf_2_0_0_prog_clk/X VGND VPWR sky130_fd_sc_hd__clkbuf_1
XANTENNA__42__A _42_/A VGND VPWR sky130_fd_sc_hd__diode_2
XFILLER_5_102 VGND VPWR sky130_fd_sc_hd__decap_6
XFILLER_5_157 VGND VPWR sky130_fd_sc_hd__fill_1
XANTENNA_mux_left_track_3.tap_buf4_0_.sky130_fd_sc_hd__inv_1_A mux_left_track_3.tap_buf4_0_.sky130_fd_sc_hd__inv_1/A
+ VGND VPWR sky130_fd_sc_hd__diode_2
XFILLER_23_26 VGND VPWR sky130_fd_sc_hd__fill_2
XANTENNA_mem_left_track_3.sc_dff_compact_1_.sky130_fd_sc_hd__dfrbp_1_D mem_left_track_3.sc_dff_compact_0_.sky130_fd_sc_hd__dfrbp_1/Q
+ VGND VPWR sky130_fd_sc_hd__diode_2
XFILLER_4_72 VGND VPWR sky130_fd_sc_hd__decap_6
XFILLER_2_105 VGND VPWR sky130_fd_sc_hd__decap_3
XFILLER_2_116 VGND VPWR sky130_fd_sc_hd__decap_8
XFILLER_2_138 VGND VPWR sky130_fd_sc_hd__fill_2
X_43_ _43_/A chanx_left_out[3] VGND VPWR sky130_fd_sc_hd__buf_2
XFILLER_18_26 VGND VPWR sky130_fd_sc_hd__fill_2
XFILLER_20_27 VGND VPWR sky130_fd_sc_hd__fill_2
XFILLER_20_16 VGND VPWR sky130_fd_sc_hd__fill_2
X_26_ _26_/HI _26_/LO VGND VPWR sky130_fd_sc_hd__conb_1
Xmux_bottom_track_9.mux_l2_in_0_.TGATE_1_.sky130_fd_sc_hd__ebufn_1 _36_/HI mux_bottom_track_9.mux_l2_in_0_.TGATE_1_.sky130_fd_sc_hd__ebufn_1/TE_B
+ mux_bottom_track_9.tap_buf4_0_.sky130_fd_sc_hd__inv_1/A VGND VPWR sky130_fd_sc_hd__ebufn_1
XANTENNA_mux_bottom_track_7.INVTX1_0_.sky130_fd_sc_hd__inv_1_A bottom_right_grid_pin_7_
+ VGND VPWR sky130_fd_sc_hd__diode_2
XANTENNA__50__A _50_/A VGND VPWR sky130_fd_sc_hd__diode_2
Xmux_left_track_17.mux_l2_in_0_.TGATE_0_.sky130_fd_sc_hd__ebufn_1 mux_left_track_17.mux_l2_in_0_.TGATE_0_.sky130_fd_sc_hd__ebufn_1/A
+ mux_left_track_17.mux_l2_in_0_.TGATE_0_.sky130_fd_sc_hd__ebufn_1/TE_B mux_left_track_17.tap_buf4_0_.sky130_fd_sc_hd__inv_1/A
+ VGND VPWR sky130_fd_sc_hd__ebufn_1
XPHY_121 VGND VPWR sky130_fd_sc_hd__tapvpwrvgnd_1
XPHY_110 VGND VPWR sky130_fd_sc_hd__tapvpwrvgnd_1
XANTENNA__45__A _45_/A VGND VPWR sky130_fd_sc_hd__diode_2
XFILLER_21_92 VGND VPWR sky130_fd_sc_hd__fill_2
XPHY_1 VGND VPWR sky130_fd_sc_hd__decap_3
XFILLER_7_50 VGND VPWR sky130_fd_sc_hd__decap_8
XFILLER_12_140 VGND VPWR sky130_fd_sc_hd__decap_12
XANTENNA_mux_bottom_track_13.mux_l2_in_0_.TGATE_1_.sky130_fd_sc_hd__ebufn_1_A _30_/HI
+ VGND VPWR sky130_fd_sc_hd__diode_2
XANTENNA_mem_bottom_track_9.sc_dff_compact_1_.sky130_fd_sc_hd__dfrbp_1_D mem_bottom_track_9.sc_dff_compact_1_.sky130_fd_sc_hd__dfrbp_1/D
+ VGND VPWR sky130_fd_sc_hd__diode_2
XANTENNA_mux_left_track_17.mux_l2_in_0_.TGATE_0_.sky130_fd_sc_hd__ebufn_1_A mux_left_track_17.mux_l2_in_0_.TGATE_0_.sky130_fd_sc_hd__ebufn_1/A
+ VGND VPWR sky130_fd_sc_hd__diode_2
XFILLER_5_114 VGND VPWR sky130_fd_sc_hd__fill_2
XANTENNA_mux_left_track_17.INVTX1_1_.sky130_fd_sc_hd__inv_1_A left_bottom_grid_pin_12_
+ VGND VPWR sky130_fd_sc_hd__diode_2
XFILLER_4_40 VGND VPWR sky130_fd_sc_hd__decap_8
XFILLER_4_84 VGND VPWR sky130_fd_sc_hd__decap_8
XANTENNA_mem_left_track_11.sc_dff_compact_1_.sky130_fd_sc_hd__dfrbp_1_D mem_left_track_11.sc_dff_compact_0_.sky130_fd_sc_hd__dfrbp_1/Q
+ VGND VPWR sky130_fd_sc_hd__diode_2
XANTENNA__53__A _53_/A VGND VPWR sky130_fd_sc_hd__diode_2
XFILLER_1_150 VGND VPWR sky130_fd_sc_hd__decap_8
X_42_ _42_/A chanx_left_out[4] VGND VPWR sky130_fd_sc_hd__buf_2
XANTENNA_mux_left_track_11.mux_l2_in_0_.TGATE_1_.sky130_fd_sc_hd__ebufn_1_A _20_/HI
+ VGND VPWR sky130_fd_sc_hd__diode_2
XANTENNA__48__A _48_/A VGND VPWR sky130_fd_sc_hd__diode_2
Xmem_bottom_track_11.sc_dff_compact_0_.sky130_fd_sc_hd__dfrbp_1 mem_bottom_track_9.sc_dff_compact_1_.sky130_fd_sc_hd__dfrbp_1/Q
+ mem_bottom_track_11.sc_dff_compact_0_.sky130_fd_sc_hd__dfrbp_1/Q mem_bottom_track_11.sc_dff_compact_0_.sky130_fd_sc_hd__dfrbp_1/Q_N
+ _19_/Y clkbuf_2_1_0_prog_clk/X VGND VPWR sky130_fd_sc_hd__dfrbp_1
X_25_ _25_/HI _25_/LO VGND VPWR sky130_fd_sc_hd__conb_1
XFILLER_1_41 VGND VPWR sky130_fd_sc_hd__fill_2
XFILLER_19_146 VGND VPWR sky130_fd_sc_hd__decap_12
XANTENNA_clkbuf_2_2_0_prog_clk_A clkbuf_2_3_0_prog_clk/A VGND VPWR sky130_fd_sc_hd__diode_2
Xmux_bottom_track_17.mux_l2_in_0_.TGATE_0_.sky130_fd_sc_hd__ebufn_1 mux_bottom_track_17.mux_l2_in_0_.TGATE_0_.sky130_fd_sc_hd__ebufn_1/A
+ mux_bottom_track_17.mux_l2_in_0_.TGATE_0_.sky130_fd_sc_hd__ebufn_1/TE_B mux_bottom_track_17.tap_buf4_0_.sky130_fd_sc_hd__inv_1/A
+ VGND VPWR sky130_fd_sc_hd__ebufn_1
XPHY_100 VGND VPWR sky130_fd_sc_hd__tapvpwrvgnd_1
XFILLER_16_138 VGND VPWR sky130_fd_sc_hd__decap_12
XFILLER_16_127 VGND VPWR sky130_fd_sc_hd__fill_2
XFILLER_16_116 VGND VPWR sky130_fd_sc_hd__fill_2
XFILLER_15_39 VGND VPWR sky130_fd_sc_hd__fill_2
Xmux_bottom_track_7.mux_l2_in_0_.TGATE_0_.sky130_fd_sc_hd__ebufn_1 mux_bottom_track_7.mux_l1_in_0_.TGATE_1_.sky130_fd_sc_hd__ebufn_1/Z
+ mux_bottom_track_7.mux_l2_in_0_.TGATE_0_.sky130_fd_sc_hd__ebufn_1/TE_B mux_bottom_track_7.tap_buf4_0_.sky130_fd_sc_hd__inv_1/A
+ VGND VPWR sky130_fd_sc_hd__ebufn_1
XPHY_122 VGND VPWR sky130_fd_sc_hd__tapvpwrvgnd_1
XPHY_111 VGND VPWR sky130_fd_sc_hd__tapvpwrvgnd_1
XPHY_2 VGND VPWR sky130_fd_sc_hd__decap_3
XANTENNA_mem_left_track_13.sc_dff_compact_0_.sky130_fd_sc_hd__dfrbp_1_RESET_B _19_/Y
+ VGND VPWR sky130_fd_sc_hd__diode_2
XANTENNA_mem_left_track_5.sc_dff_compact_0_.sky130_fd_sc_hd__dfrbp_1_D mem_left_track_3.sc_dff_compact_1_.sky130_fd_sc_hd__dfrbp_1/Q
+ VGND VPWR sky130_fd_sc_hd__diode_2
XFILLER_13_119 VGND VPWR sky130_fd_sc_hd__decap_3
XANTENNA_mux_left_track_9.mux_l2_in_0_.TGATE_0_.sky130_fd_sc_hd__ebufn_1_A mux_left_track_9.mux_l1_in_0_.TGATE_1_.sky130_fd_sc_hd__ebufn_1/Z
+ VGND VPWR sky130_fd_sc_hd__diode_2
Xmux_bottom_track_1.tap_buf4_0_.sky130_fd_sc_hd__inv_1 mux_bottom_track_1.tap_buf4_0_.sky130_fd_sc_hd__inv_1/A
+ _55_/A VGND VPWR sky130_fd_sc_hd__inv_1
Xmem_left_track_13.sc_dff_compact_1_.sky130_fd_sc_hd__dfrbp_1 mem_left_track_13.sc_dff_compact_1_.sky130_fd_sc_hd__dfrbp_1/D
+ mem_left_track_13.sc_dff_compact_1_.sky130_fd_sc_hd__dfrbp_1/Q mem_left_track_13.sc_dff_compact_1_.sky130_fd_sc_hd__dfrbp_1/Q_N
+ _19_/Y clkbuf_2_3_0_prog_clk/X VGND VPWR sky130_fd_sc_hd__dfrbp_1
XANTENNA_mem_bottom_track_11.sc_dff_compact_0_.sky130_fd_sc_hd__dfrbp_1_CLK clkbuf_2_1_0_prog_clk/X
+ VGND VPWR sky130_fd_sc_hd__diode_2
Xmux_bottom_track_3.INVTX1_1_.sky130_fd_sc_hd__inv_1 chanx_left_in[2] mux_bottom_track_3.INVTX1_1_.sky130_fd_sc_hd__inv_1/Y
+ VGND VPWR sky130_fd_sc_hd__inv_1
XFILLER_12_152 VGND VPWR sky130_fd_sc_hd__fill_1
XFILLER_8_101 VGND VPWR sky130_fd_sc_hd__decap_8
XFILLER_8_112 VGND VPWR sky130_fd_sc_hd__decap_8
XFILLER_8_123 VGND VPWR sky130_fd_sc_hd__decap_8
XFILLER_8_134 VGND VPWR sky130_fd_sc_hd__decap_8
XFILLER_8_145 VGND VPWR sky130_fd_sc_hd__decap_8
XANTENNA_mem_left_track_17.sc_dff_compact_0_.sky130_fd_sc_hd__dfrbp_1_CLK clkbuf_2_1_0_prog_clk/X
+ VGND VPWR sky130_fd_sc_hd__diode_2
XANTENNA_mem_left_track_15.sc_dff_compact_1_.sky130_fd_sc_hd__dfrbp_1_RESET_B _19_/Y
+ VGND VPWR sky130_fd_sc_hd__diode_2
Xmux_left_track_7.mux_l2_in_0_.TGATE_1_.sky130_fd_sc_hd__ebufn_1 _26_/HI mux_left_track_7.mux_l2_in_0_.TGATE_1_.sky130_fd_sc_hd__ebufn_1/TE_B
+ mux_left_track_7.tap_buf4_0_.sky130_fd_sc_hd__inv_1/A VGND VPWR sky130_fd_sc_hd__ebufn_1
XANTENNA_mux_bottom_track_7.tap_buf4_0_.sky130_fd_sc_hd__inv_1_A mux_bottom_track_7.tap_buf4_0_.sky130_fd_sc_hd__inv_1/A
+ VGND VPWR sky130_fd_sc_hd__diode_2
XFILLER_3_9 VGND VPWR sky130_fd_sc_hd__fill_1
XANTENNA_mux_left_track_3.mux_l2_in_0_.TGATE_1_.sky130_fd_sc_hd__ebufn_1_A _24_/HI
+ VGND VPWR sky130_fd_sc_hd__diode_2
X_41_ _41_/A chanx_left_out[5] VGND VPWR sky130_fd_sc_hd__buf_2
Xmem_bottom_track_5.sc_dff_compact_0_.sky130_fd_sc_hd__dfrbp_1 mem_bottom_track_5.sc_dff_compact_0_.sky130_fd_sc_hd__dfrbp_1/D
+ mem_bottom_track_5.sc_dff_compact_0_.sky130_fd_sc_hd__dfrbp_1/Q mem_bottom_track_5.sc_dff_compact_0_.sky130_fd_sc_hd__dfrbp_1/Q_N