* NGSPICE file created from sb_3__3_.ext - technology: sky130A

* Black-box entry subcircuit for sky130_fd_sc_hd__ebufn_1 abstract view
.subckt sky130_fd_sc_hd__ebufn_1 A TE_B Z VGND VPWR
.ends

* Black-box entry subcircuit for sky130_fd_sc_hd__fill_2 abstract view
.subckt sky130_fd_sc_hd__fill_2 VGND VPWR
.ends

* Black-box entry subcircuit for sky130_fd_sc_hd__decap_4 abstract view
.subckt sky130_fd_sc_hd__decap_4 VGND VPWR
.ends

* Black-box entry subcircuit for sky130_fd_sc_hd__decap_3 abstract view
.subckt sky130_fd_sc_hd__decap_3 VGND VPWR
.ends

* Black-box entry subcircuit for sky130_fd_sc_hd__dfrbp_1 abstract view
.subckt sky130_fd_sc_hd__dfrbp_1 D Q Q_N RESET_B CLK VGND VPWR
.ends

* Black-box entry subcircuit for sky130_fd_sc_hd__diode_2 abstract view
.subckt sky130_fd_sc_hd__diode_2 DIODE VGND VPWR
.ends

* Black-box entry subcircuit for sky130_fd_sc_hd__inv_1 abstract view
.subckt sky130_fd_sc_hd__inv_1 A Y VGND VPWR
.ends

* Black-box entry subcircuit for sky130_fd_sc_hd__buf_2 abstract view
.subckt sky130_fd_sc_hd__buf_2 A X VGND VPWR
.ends

* Black-box entry subcircuit for sky130_fd_sc_hd__decap_12 abstract view
.subckt sky130_fd_sc_hd__decap_12 VGND VPWR
.ends

* Black-box entry subcircuit for sky130_fd_sc_hd__decap_8 abstract view
.subckt sky130_fd_sc_hd__decap_8 VGND VPWR
.ends

* Black-box entry subcircuit for sky130_fd_sc_hd__fill_1 abstract view
.subckt sky130_fd_sc_hd__fill_1 VGND VPWR
.ends

* Black-box entry subcircuit for sky130_fd_sc_hd__decap_6 abstract view
.subckt sky130_fd_sc_hd__decap_6 VGND VPWR
.ends

* Black-box entry subcircuit for sky130_fd_sc_hd__clkbuf_1 abstract view
.subckt sky130_fd_sc_hd__clkbuf_1 A X VGND VPWR
.ends

* Black-box entry subcircuit for sky130_fd_sc_hd__conb_1 abstract view
.subckt sky130_fd_sc_hd__conb_1 HI LO VGND VPWR
.ends

* Black-box entry subcircuit for sky130_fd_sc_hd__tapvpwrvgnd_1 abstract view
.subckt sky130_fd_sc_hd__tapvpwrvgnd_1 VGND VPWR
.ends

* Black-box entry subcircuit for sky130_fd_sc_hd__clkbuf_16 abstract view
.subckt sky130_fd_sc_hd__clkbuf_16 A X VGND VPWR
.ends

* Black-box entry subcircuit for sky130_fd_sc_hd__inv_8 abstract view
.subckt sky130_fd_sc_hd__inv_8 A Y VGND VPWR
.ends

.subckt sb_3__3_ bottom_left_grid_pin_13_ bottom_right_grid_pin_11_ bottom_right_grid_pin_13_
+ bottom_right_grid_pin_15_ bottom_right_grid_pin_1_ bottom_right_grid_pin_3_ bottom_right_grid_pin_5_
+ bottom_right_grid_pin_7_ bottom_right_grid_pin_9_ ccff_head ccff_tail chanx_left_in[0]
+ chanx_left_in[1] chanx_left_in[2] chanx_left_in[3] chanx_left_in[4] chanx_left_in[5]
+ chanx_left_in[6] chanx_left_in[7] chanx_left_in[8] chanx_left_out[0] chanx_left_out[1]
+ chanx_left_out[2] chanx_left_out[3] chanx_left_out[4] chanx_left_out[5] chanx_left_out[6]
+ chanx_left_out[7] chanx_left_out[8] chany_bottom_in[0] chany_bottom_in[1] chany_bottom_in[2]
+ chany_bottom_in[3] chany_bottom_in[4] chany_bottom_in[5] chany_bottom_in[6] chany_bottom_in[7]
+ chany_bottom_in[8] chany_bottom_out[0] chany_bottom_out[1] chany_bottom_out[2] chany_bottom_out[3]
+ chany_bottom_out[4] chany_bottom_out[5] chany_bottom_out[6] chany_bottom_out[7]
+ chany_bottom_out[8] left_bottom_grid_pin_12_ left_top_grid_pin_11_ left_top_grid_pin_13_
+ left_top_grid_pin_15_ left_top_grid_pin_1_ left_top_grid_pin_3_ left_top_grid_pin_5_
+ left_top_grid_pin_7_ left_top_grid_pin_9_ pReset prog_clk VPWR VGND
Xmux_left_track_3.mux_l2_in_0_.TGATE_0_.sky130_fd_sc_hd__ebufn_1 mux_left_track_3.mux_l2_in_0_.TGATE_0_.sky130_fd_sc_hd__ebufn_1/A
+ mux_left_track_3.mux_l2_in_0_.TGATE_0_.sky130_fd_sc_hd__ebufn_1/TE_B mux_left_track_3.tap_buf4_0_.sky130_fd_sc_hd__inv_1/A
+ VGND VPWR sky130_fd_sc_hd__ebufn_1
XFILLER_13_133 VGND VPWR sky130_fd_sc_hd__fill_2
XFILLER_13_100 VGND VPWR sky130_fd_sc_hd__decap_4
XFILLER_9_126 VGND VPWR sky130_fd_sc_hd__fill_2
XFILLER_3_12 VGND VPWR sky130_fd_sc_hd__decap_3
Xmux_bottom_track_15.mux_l1_in_0_.TGATE_1_.sky130_fd_sc_hd__ebufn_1 mux_bottom_track_15.INVTX1_1_.sky130_fd_sc_hd__inv_1/Y
+ mux_bottom_track_15.mux_l1_in_0_.TGATE_1_.sky130_fd_sc_hd__ebufn_1/TE_B mux_bottom_track_15.mux_l1_in_0_.TGATE_0_.sky130_fd_sc_hd__ebufn_1/Z
+ VGND VPWR sky130_fd_sc_hd__ebufn_1
Xmux_bottom_track_5.mux_l1_in_0_.TGATE_1_.sky130_fd_sc_hd__ebufn_1 mux_bottom_track_5.INVTX1_1_.sky130_fd_sc_hd__inv_1/Y
+ mux_bottom_track_5.mux_l1_in_0_.TGATE_1_.sky130_fd_sc_hd__ebufn_1/TE_B mux_bottom_track_5.mux_l1_in_0_.TGATE_1_.sky130_fd_sc_hd__ebufn_1/Z
+ VGND VPWR sky130_fd_sc_hd__ebufn_1
XFILLER_10_114 VGND VPWR sky130_fd_sc_hd__fill_2
Xmem_bottom_track_1.sc_dff_compact_1_.sky130_fd_sc_hd__dfrbp_1 mem_bottom_track_1.sc_dff_compact_0_.sky130_fd_sc_hd__dfrbp_1/Q
+ mem_bottom_track_1.sc_dff_compact_1_.sky130_fd_sc_hd__dfrbp_1/Q mem_bottom_track_1.sc_dff_compact_1_.sky130_fd_sc_hd__dfrbp_1/Q_N
+ _19_/Y clkbuf_2_0_0_prog_clk/X VGND VPWR sky130_fd_sc_hd__dfrbp_1
Xmem_left_track_5.sc_dff_compact_1_.sky130_fd_sc_hd__dfrbp_1 mem_left_track_5.sc_dff_compact_0_.sky130_fd_sc_hd__dfrbp_1/Q
+ mem_left_track_5.sc_dff_compact_1_.sky130_fd_sc_hd__dfrbp_1/Q mem_left_track_5.sc_dff_compact_1_.sky130_fd_sc_hd__dfrbp_1/Q_N
+ _19_/Y clkbuf_2_2_0_prog_clk/X VGND VPWR sky130_fd_sc_hd__dfrbp_1
XANTENNA_mux_left_track_7.mux_l2_in_0_.TGATE_1_.sky130_fd_sc_hd__ebufn_1_A _26_/HI
+ VGND VPWR sky130_fd_sc_hd__diode_2
XANTENNA_mem_bottom_track_5.sc_dff_compact_0_.sky130_fd_sc_hd__dfrbp_1_CLK clkbuf_2_0_0_prog_clk/X
+ VGND VPWR sky130_fd_sc_hd__diode_2
Xmux_left_track_13.mux_l1_in_0_.TGATE_0_.sky130_fd_sc_hd__ebufn_1 mux_left_track_13.INVTX1_0_.sky130_fd_sc_hd__inv_1/Y
+ mux_left_track_13.mux_l1_in_0_.TGATE_0_.sky130_fd_sc_hd__ebufn_1/TE_B mux_left_track_13.mux_l2_in_0_.TGATE_0_.sky130_fd_sc_hd__ebufn_1/A
+ VGND VPWR sky130_fd_sc_hd__ebufn_1
XANTENNA_mem_bottom_track_17.sc_dff_compact_0_.sky130_fd_sc_hd__dfrbp_1_CLK clkbuf_2_3_0_prog_clk/X
+ VGND VPWR sky130_fd_sc_hd__diode_2
XANTENNA_mux_bottom_track_3.mux_l1_in_0_.TGATE_0_.sky130_fd_sc_hd__ebufn_1_A mux_bottom_track_3.INVTX1_0_.sky130_fd_sc_hd__inv_1/Y
+ VGND VPWR sky130_fd_sc_hd__diode_2
Xmux_bottom_track_3.tap_buf4_0_.sky130_fd_sc_hd__inv_1 mux_bottom_track_3.tap_buf4_0_.sky130_fd_sc_hd__inv_1/A
+ _54_/A VGND VPWR sky130_fd_sc_hd__inv_1
XANTENNA_clkbuf_2_1_0_prog_clk_A clkbuf_2_1_0_prog_clk/A VGND VPWR sky130_fd_sc_hd__diode_2
X_49_ _49_/A chany_bottom_out[6] VGND VPWR sky130_fd_sc_hd__buf_2
XFILLER_15_6 VGND VPWR sky130_fd_sc_hd__fill_2
XFILLER_20_76 VGND VPWR sky130_fd_sc_hd__decap_12
XFILLER_20_65 VGND VPWR sky130_fd_sc_hd__decap_8
XFILLER_20_32 VGND VPWR sky130_fd_sc_hd__decap_8
XFILLER_20_21 VGND VPWR sky130_fd_sc_hd__decap_8
XFILLER_13_3 VGND VPWR sky130_fd_sc_hd__fill_1
XFILLER_6_23 VGND VPWR sky130_fd_sc_hd__decap_4
XFILLER_6_45 VGND VPWR sky130_fd_sc_hd__fill_2
XFILLER_15_87 VGND VPWR sky130_fd_sc_hd__fill_2
XFILLER_15_65 VGND VPWR sky130_fd_sc_hd__fill_2
XFILLER_15_54 VGND VPWR sky130_fd_sc_hd__fill_2
XFILLER_15_10 VGND VPWR sky130_fd_sc_hd__fill_2
XANTENNA_mem_left_track_5.sc_dff_compact_1_.sky130_fd_sc_hd__dfrbp_1_CLK clkbuf_2_2_0_prog_clk/X
+ VGND VPWR sky130_fd_sc_hd__diode_2
XANTENNA_mux_bottom_track_17.mux_l1_in_0_.TGATE_1_.sky130_fd_sc_hd__ebufn_1_A mux_bottom_track_17.INVTX1_1_.sky130_fd_sc_hd__inv_1/Y
+ VGND VPWR sky130_fd_sc_hd__diode_2
XANTENNA_mem_bottom_track_11.sc_dff_compact_1_.sky130_fd_sc_hd__dfrbp_1_RESET_B _19_/Y
+ VGND VPWR sky130_fd_sc_hd__diode_2
XFILLER_22_145 VGND VPWR sky130_fd_sc_hd__decap_8
XANTENNA_mem_left_track_17.sc_dff_compact_0_.sky130_fd_sc_hd__dfrbp_1_RESET_B _19_/Y
+ VGND VPWR sky130_fd_sc_hd__diode_2
XANTENNA_mux_bottom_track_13.tap_buf4_0_.sky130_fd_sc_hd__inv_1_A mux_bottom_track_13.tap_buf4_0_.sky130_fd_sc_hd__inv_1/A
+ VGND VPWR sky130_fd_sc_hd__diode_2
XFILLER_13_145 VGND VPWR sky130_fd_sc_hd__decap_8
XFILLER_13_123 VGND VPWR sky130_fd_sc_hd__decap_3
Xmux_bottom_track_1.INVTX1_0_.sky130_fd_sc_hd__inv_1 bottom_right_grid_pin_1_ mux_bottom_track_1.INVTX1_0_.sky130_fd_sc_hd__inv_1/Y
+ VGND VPWR sky130_fd_sc_hd__inv_1
XFILLER_3_57 VGND VPWR sky130_fd_sc_hd__fill_2
XFILLER_12_55 VGND VPWR sky130_fd_sc_hd__decap_6
XFILLER_12_22 VGND VPWR sky130_fd_sc_hd__fill_2
XFILLER_12_11 VGND VPWR sky130_fd_sc_hd__fill_2
Xmux_bottom_track_13.mux_l1_in_0_.TGATE_0_.sky130_fd_sc_hd__ebufn_1 mux_bottom_track_13.INVTX1_0_.sky130_fd_sc_hd__inv_1/Y
+ mux_bottom_track_13.mux_l1_in_0_.TGATE_0_.sky130_fd_sc_hd__ebufn_1/TE_B mux_bottom_track_13.mux_l2_in_0_.TGATE_0_.sky130_fd_sc_hd__ebufn_1/A
+ VGND VPWR sky130_fd_sc_hd__ebufn_1
XANTENNA_mem_bottom_track_3.sc_dff_compact_1_.sky130_fd_sc_hd__dfrbp_1_D mem_bottom_track_3.sc_dff_compact_0_.sky130_fd_sc_hd__dfrbp_1/Q
+ VGND VPWR sky130_fd_sc_hd__diode_2
XFILLER_23_98 VGND VPWR sky130_fd_sc_hd__decap_6
Xmux_bottom_track_3.mux_l1_in_0_.TGATE_0_.sky130_fd_sc_hd__ebufn_1 mux_bottom_track_3.INVTX1_0_.sky130_fd_sc_hd__inv_1/Y
+ mux_bottom_track_3.mux_l1_in_0_.TGATE_0_.sky130_fd_sc_hd__ebufn_1/TE_B mux_bottom_track_3.mux_l1_in_0_.TGATE_1_.sky130_fd_sc_hd__ebufn_1/Z
+ VGND VPWR sky130_fd_sc_hd__ebufn_1
XANTENNA_mux_left_track_15.mux_l1_in_0_.TGATE_1_.sky130_fd_sc_hd__ebufn_1_A mux_left_track_15.INVTX1_1_.sky130_fd_sc_hd__inv_1/Y
+ VGND VPWR sky130_fd_sc_hd__diode_2
X_48_ _48_/A chany_bottom_out[7] VGND VPWR sky130_fd_sc_hd__buf_2
Xmux_left_track_3.mux_l1_in_0_.TGATE_1_.sky130_fd_sc_hd__ebufn_1 mux_left_track_3.INVTX1_1_.sky130_fd_sc_hd__inv_1/Y
+ mux_left_track_3.mux_l1_in_0_.TGATE_1_.sky130_fd_sc_hd__ebufn_1/TE_B mux_left_track_3.mux_l2_in_0_.TGATE_0_.sky130_fd_sc_hd__ebufn_1/A
+ VGND VPWR sky130_fd_sc_hd__ebufn_1
XFILLER_20_88 VGND VPWR sky130_fd_sc_hd__decap_4
XFILLER_25_121 VGND VPWR sky130_fd_sc_hd__decap_3
Xmem_left_track_11.sc_dff_compact_0_.sky130_fd_sc_hd__dfrbp_1 mem_left_track_9.sc_dff_compact_1_.sky130_fd_sc_hd__dfrbp_1/Q
+ mem_left_track_11.sc_dff_compact_0_.sky130_fd_sc_hd__dfrbp_1/Q mem_left_track_11.sc_dff_compact_0_.sky130_fd_sc_hd__dfrbp_1/Q_N
+ _19_/Y clkbuf_2_1_0_prog_clk/X VGND VPWR sky130_fd_sc_hd__dfrbp_1
XANTENNA_mem_left_track_3.sc_dff_compact_0_.sky130_fd_sc_hd__dfrbp_1_RESET_B _19_/Y
+ VGND VPWR sky130_fd_sc_hd__diode_2
XANTENNA_mem_bottom_track_15.sc_dff_compact_1_.sky130_fd_sc_hd__dfrbp_1_D mem_bottom_track_15.sc_dff_compact_0_.sky130_fd_sc_hd__dfrbp_1/Q
+ VGND VPWR sky130_fd_sc_hd__diode_2
XANTENNA_mem_bottom_track_9.sc_dff_compact_0_.sky130_fd_sc_hd__dfrbp_1_RESET_B _19_/Y
+ VGND VPWR sky130_fd_sc_hd__diode_2
XANTENNA_mem_left_track_5.sc_dff_compact_1_.sky130_fd_sc_hd__dfrbp_1_RESET_B _19_/Y
+ VGND VPWR sky130_fd_sc_hd__diode_2
Xmux_bottom_track_17.INVTX1_1_.sky130_fd_sc_hd__inv_1 chanx_left_in[0] mux_bottom_track_17.INVTX1_1_.sky130_fd_sc_hd__inv_1/Y
+ VGND VPWR sky130_fd_sc_hd__inv_1
XANTENNA_mux_left_track_7.mux_l1_in_0_.TGATE_1_.sky130_fd_sc_hd__ebufn_1_A mux_left_track_7.INVTX1_1_.sky130_fd_sc_hd__inv_1/Y
+ VGND VPWR sky130_fd_sc_hd__diode_2
XFILLER_23_77 VGND VPWR sky130_fd_sc_hd__fill_2
XFILLER_23_66 VGND VPWR sky130_fd_sc_hd__fill_2
XFILLER_2_145 VGND VPWR sky130_fd_sc_hd__decap_8
XFILLER_3_3 VGND VPWR sky130_fd_sc_hd__fill_1
X_47_ _47_/A chany_bottom_out[8] VGND VPWR sky130_fd_sc_hd__buf_2
XFILLER_9_57 VGND VPWR sky130_fd_sc_hd__fill_2
XFILLER_9_46 VGND VPWR sky130_fd_sc_hd__fill_2
XFILLER_18_22 VGND VPWR sky130_fd_sc_hd__decap_8
XFILLER_18_11 VGND VPWR sky130_fd_sc_hd__fill_2
XANTENNA_mux_bottom_track_1.mux_l2_in_0_.TGATE_0_.sky130_fd_sc_hd__ebufn_1_A mux_bottom_track_1.mux_l2_in_0_.TGATE_0_.sky130_fd_sc_hd__ebufn_1/A
+ VGND VPWR sky130_fd_sc_hd__diode_2
Xmem_left_track_1.sc_dff_compact_1_.sky130_fd_sc_hd__dfrbp_1 mem_left_track_1.sc_dff_compact_1_.sky130_fd_sc_hd__dfrbp_1/D
+ mem_left_track_1.sc_dff_compact_1_.sky130_fd_sc_hd__dfrbp_1/Q mem_left_track_1.sc_dff_compact_1_.sky130_fd_sc_hd__dfrbp_1/Q_N
+ _19_/Y clkbuf_2_1_0_prog_clk/X VGND VPWR sky130_fd_sc_hd__dfrbp_1
XANTENNA_mux_bottom_track_11.INVTX1_1_.sky130_fd_sc_hd__inv_1_A chanx_left_in[6] VGND
+ VPWR sky130_fd_sc_hd__diode_2
XANTENNA_mux_left_track_3.INVTX1_0_.sky130_fd_sc_hd__inv_1_A chany_bottom_in[0] VGND
+ VPWR sky130_fd_sc_hd__diode_2
XANTENNA_clkbuf_1_0_0_prog_clk_A clkbuf_0_prog_clk/X VGND VPWR sky130_fd_sc_hd__diode_2
Xmux_left_track_3.INVTX1_1_.sky130_fd_sc_hd__inv_1 left_top_grid_pin_3_ mux_left_track_3.INVTX1_1_.sky130_fd_sc_hd__inv_1/Y
+ VGND VPWR sky130_fd_sc_hd__inv_1
XFILLER_19_152 VGND VPWR sky130_fd_sc_hd__fill_1
Xmux_left_track_13.INVTX1_1_.sky130_fd_sc_hd__inv_1 left_top_grid_pin_13_ mux_left_track_13.INVTX1_1_.sky130_fd_sc_hd__inv_1/Y
+ VGND VPWR sky130_fd_sc_hd__inv_1
Xmux_left_track_1.mux_l1_in_0_.TGATE_0_.sky130_fd_sc_hd__ebufn_1 mux_left_track_1.INVTX1_0_.sky130_fd_sc_hd__inv_1/Y
+ mux_left_track_1.mux_l1_in_0_.TGATE_0_.sky130_fd_sc_hd__ebufn_1/TE_B mux_left_track_1.mux_l1_in_0_.TGATE_1_.sky130_fd_sc_hd__ebufn_1/Z
+ VGND VPWR sky130_fd_sc_hd__ebufn_1
Xclkbuf_2_1_0_prog_clk clkbuf_2_1_0_prog_clk/A clkbuf_2_1_0_prog_clk/X VGND VPWR sky130_fd_sc_hd__clkbuf_1
XANTENNA_mux_bottom_track_15.mux_l2_in_0_.TGATE_1_.sky130_fd_sc_hd__ebufn_1_A _31_/HI
+ VGND VPWR sky130_fd_sc_hd__diode_2
XFILLER_13_114 VGND VPWR sky130_fd_sc_hd__fill_2
XANTENNA_mux_left_track_5.tap_buf4_0_.sky130_fd_sc_hd__inv_1_A mux_left_track_5.tap_buf4_0_.sky130_fd_sc_hd__inv_1/A
+ VGND VPWR sky130_fd_sc_hd__diode_2
XFILLER_9_118 VGND VPWR sky130_fd_sc_hd__fill_2
XANTENNA_mem_bottom_track_5.sc_dff_compact_0_.sky130_fd_sc_hd__dfrbp_1_D mem_bottom_track_3.sc_dff_compact_1_.sky130_fd_sc_hd__dfrbp_1/Q
+ VGND VPWR sky130_fd_sc_hd__diode_2
XFILLER_3_48 VGND VPWR sky130_fd_sc_hd__fill_1
XFILLER_5_7 VGND VPWR sky130_fd_sc_hd__decap_3
XFILLER_23_34 VGND VPWR sky130_fd_sc_hd__fill_2
XFILLER_0_38 VGND VPWR sky130_fd_sc_hd__fill_2
XFILLER_0_27 VGND VPWR sky130_fd_sc_hd__fill_2
XFILLER_2_124 VGND VPWR sky130_fd_sc_hd__fill_1
XANTENNA_mem_bottom_track_11.sc_dff_compact_1_.sky130_fd_sc_hd__dfrbp_1_CLK clkbuf_2_1_0_prog_clk/X
+ VGND VPWR sky130_fd_sc_hd__diode_2
XANTENNA_mem_left_track_17.sc_dff_compact_1_.sky130_fd_sc_hd__dfrbp_1_CLK clkbuf_2_3_0_prog_clk/X
+ VGND VPWR sky130_fd_sc_hd__diode_2
X_46_ _46_/A chanx_left_out[0] VGND VPWR sky130_fd_sc_hd__buf_2
XANTENNA_mux_left_track_13.mux_l2_in_0_.TGATE_1_.sky130_fd_sc_hd__ebufn_1_A _21_/HI
+ VGND VPWR sky130_fd_sc_hd__diode_2
X_29_ _29_/HI _29_/LO VGND VPWR sky130_fd_sc_hd__conb_1
XANTENNA_mux_bottom_track_5.INVTX1_1_.sky130_fd_sc_hd__inv_1_A chanx_left_in[3] VGND
+ VPWR sky130_fd_sc_hd__diode_2
XFILLER_1_92 VGND VPWR sky130_fd_sc_hd__fill_1
Xmux_left_track_13.tap_buf4_0_.sky130_fd_sc_hd__inv_1 mux_left_track_13.tap_buf4_0_.sky130_fd_sc_hd__inv_1/A
+ _40_/A VGND VPWR sky130_fd_sc_hd__inv_1
XFILLER_19_131 VGND VPWR sky130_fd_sc_hd__fill_2
XANTENNA_mem_bottom_track_17.sc_dff_compact_0_.sky130_fd_sc_hd__dfrbp_1_D mem_bottom_track_15.sc_dff_compact_1_.sky130_fd_sc_hd__dfrbp_1/Q
+ VGND VPWR sky130_fd_sc_hd__diode_2
XFILLER_15_79 VGND VPWR sky130_fd_sc_hd__fill_1
Xmux_left_track_11.mux_l2_in_0_.TGATE_1_.sky130_fd_sc_hd__ebufn_1 _20_/HI mux_left_track_11.mux_l2_in_0_.TGATE_1_.sky130_fd_sc_hd__ebufn_1/TE_B
+ mux_left_track_11.tap_buf4_0_.sky130_fd_sc_hd__inv_1/A VGND VPWR sky130_fd_sc_hd__ebufn_1
XFILLER_16_145 VGND VPWR sky130_fd_sc_hd__decap_8
XFILLER_16_134 VGND VPWR sky130_fd_sc_hd__decap_3
XFILLER_11_3 VGND VPWR sky130_fd_sc_hd__fill_1
XFILLER_10_118 VGND VPWR sky130_fd_sc_hd__fill_2
XFILLER_8_141 VGND VPWR sky130_fd_sc_hd__decap_12
XFILLER_5_133 VGND VPWR sky130_fd_sc_hd__fill_2
XANTENNA_mux_bottom_track_11.tap_buf4_0_.sky130_fd_sc_hd__inv_1_A mux_bottom_track_11.tap_buf4_0_.sky130_fd_sc_hd__inv_1/A
+ VGND VPWR sky130_fd_sc_hd__diode_2
XANTENNA_mux_left_track_5.mux_l2_in_0_.TGATE_1_.sky130_fd_sc_hd__ebufn_1_A _25_/HI
+ VGND VPWR sky130_fd_sc_hd__diode_2
XFILLER_23_46 VGND VPWR sky130_fd_sc_hd__fill_2
Xmux_left_track_7.tap_buf4_0_.sky130_fd_sc_hd__inv_1 mux_left_track_7.tap_buf4_0_.sky130_fd_sc_hd__inv_1/A
+ _43_/A VGND VPWR sky130_fd_sc_hd__inv_1
XANTENNA_mux_bottom_track_1.mux_l1_in_0_.TGATE_0_.sky130_fd_sc_hd__ebufn_1_A mux_bottom_track_1.INVTX1_0_.sky130_fd_sc_hd__inv_1/Y
+ VGND VPWR sky130_fd_sc_hd__diode_2
XFILLER_9_26 VGND VPWR sky130_fd_sc_hd__fill_2
X_45_ _45_/A chanx_left_out[1] VGND VPWR sky130_fd_sc_hd__buf_2
XANTENNA_mux_left_track_11.INVTX1_0_.sky130_fd_sc_hd__inv_1_A chany_bottom_in[4] VGND
+ VPWR sky130_fd_sc_hd__diode_2
XFILLER_18_46 VGND VPWR sky130_fd_sc_hd__decap_12
XFILLER_18_35 VGND VPWR sky130_fd_sc_hd__decap_8
XANTENNA_mem_left_track_15.sc_dff_compact_0_.sky130_fd_sc_hd__dfrbp_1_RESET_B _19_/Y
+ VGND VPWR sky130_fd_sc_hd__diode_2
Xmux_left_track_9.mux_l1_in_0_.TGATE_0_.sky130_fd_sc_hd__ebufn_1 mux_left_track_9.INVTX1_0_.sky130_fd_sc_hd__inv_1/Y
+ mux_left_track_9.mux_l1_in_0_.TGATE_0_.sky130_fd_sc_hd__ebufn_1/TE_B mux_left_track_9.mux_l2_in_0_.TGATE_0_.sky130_fd_sc_hd__ebufn_1/A
+ VGND VPWR sky130_fd_sc_hd__ebufn_1
X_28_ _28_/HI _28_/LO VGND VPWR sky130_fd_sc_hd__conb_1
XANTENNA_mem_left_track_17.sc_dff_compact_1_.sky130_fd_sc_hd__dfrbp_1_RESET_B _19_/Y
+ VGND VPWR sky130_fd_sc_hd__diode_2
Xmux_bottom_track_7.INVTX1_1_.sky130_fd_sc_hd__inv_1 chanx_left_in[4] mux_bottom_track_7.INVTX1_1_.sky130_fd_sc_hd__inv_1/Y
+ VGND VPWR sky130_fd_sc_hd__inv_1
XFILLER_6_27 VGND VPWR sky130_fd_sc_hd__fill_1
XFILLER_25_113 VGND VPWR sky130_fd_sc_hd__decap_8
XFILLER_25_102 VGND VPWR sky130_fd_sc_hd__decap_8
XFILLER_15_69 VGND VPWR sky130_fd_sc_hd__decap_4
XFILLER_15_58 VGND VPWR sky130_fd_sc_hd__decap_3
XFILLER_15_47 VGND VPWR sky130_fd_sc_hd__decap_4
XFILLER_15_14 VGND VPWR sky130_fd_sc_hd__decap_8
Xmux_bottom_track_11.mux_l2_in_0_.TGATE_1_.sky130_fd_sc_hd__ebufn_1 _29_/HI mux_bottom_track_11.mux_l2_in_0_.TGATE_1_.sky130_fd_sc_hd__ebufn_1/TE_B
+ mux_bottom_track_11.tap_buf4_0_.sky130_fd_sc_hd__inv_1/A VGND VPWR sky130_fd_sc_hd__ebufn_1
XANTENNA_mux_bottom_track_15.mux_l1_in_0_.TGATE_1_.sky130_fd_sc_hd__ebufn_1_A mux_bottom_track_15.INVTX1_1_.sky130_fd_sc_hd__inv_1/Y
+ VGND VPWR sky130_fd_sc_hd__diode_2
Xmux_bottom_track_1.mux_l2_in_0_.TGATE_1_.sky130_fd_sc_hd__ebufn_1 _28_/HI mux_bottom_track_1.mux_l2_in_0_.TGATE_1_.sky130_fd_sc_hd__ebufn_1/TE_B
+ mux_bottom_track_1.tap_buf4_0_.sky130_fd_sc_hd__inv_1/A VGND VPWR sky130_fd_sc_hd__ebufn_1
XANTENNA_mem_bottom_track_7.sc_dff_compact_1_.sky130_fd_sc_hd__dfrbp_1_CLK clkbuf_2_0_0_prog_clk/X
+ VGND VPWR sky130_fd_sc_hd__diode_2
XFILLER_7_70 VGND VPWR sky130_fd_sc_hd__fill_2
XANTENNA_mux_bottom_track_9.tap_buf4_0_.sky130_fd_sc_hd__inv_1_A mux_bottom_track_9.tap_buf4_0_.sky130_fd_sc_hd__inv_1/A
+ VGND VPWR sky130_fd_sc_hd__diode_2
XFILLER_12_26 VGND VPWR sky130_fd_sc_hd__fill_2
XFILLER_12_15 VGND VPWR sky130_fd_sc_hd__fill_2
Xmem_bottom_track_15.sc_dff_compact_0_.sky130_fd_sc_hd__dfrbp_1 mem_bottom_track_15.sc_dff_compact_0_.sky130_fd_sc_hd__dfrbp_1/D
+ mem_bottom_track_15.sc_dff_compact_0_.sky130_fd_sc_hd__dfrbp_1/Q mem_bottom_track_15.sc_dff_compact_0_.sky130_fd_sc_hd__dfrbp_1/Q_N
+ _19_/Y clkbuf_2_1_0_prog_clk/X VGND VPWR sky130_fd_sc_hd__dfrbp_1
XFILLER_5_123 VGND VPWR sky130_fd_sc_hd__decap_3
XFILLER_5_145 VGND VPWR sky130_fd_sc_hd__decap_8
XANTENNA_mux_left_track_9.INVTX1_1_.sky130_fd_sc_hd__inv_1_A left_top_grid_pin_9_
+ VGND VPWR sky130_fd_sc_hd__diode_2
XFILLER_23_58 VGND VPWR sky130_fd_sc_hd__fill_1
XFILLER_23_14 VGND VPWR sky130_fd_sc_hd__fill_2
XFILLER_4_82 VGND VPWR sky130_fd_sc_hd__fill_2
XFILLER_4_93 VGND VPWR sky130_fd_sc_hd__fill_2
XANTENNA_mem_left_track_1.sc_dff_compact_0_.sky130_fd_sc_hd__dfrbp_1_RESET_B _19_/Y
+ VGND VPWR sky130_fd_sc_hd__diode_2
XANTENNA_mux_left_track_13.mux_l1_in_0_.TGATE_1_.sky130_fd_sc_hd__ebufn_1_A mux_left_track_13.INVTX1_1_.sky130_fd_sc_hd__inv_1/Y
+ VGND VPWR sky130_fd_sc_hd__diode_2
X_44_ _44_/A chanx_left_out[2] VGND VPWR sky130_fd_sc_hd__buf_2
Xmux_bottom_track_13.INVTX1_1_.sky130_fd_sc_hd__inv_1 chanx_left_in[7] mux_bottom_track_13.INVTX1_1_.sky130_fd_sc_hd__inv_1/Y
+ VGND VPWR sky130_fd_sc_hd__inv_1
XFILLER_18_58 VGND VPWR sky130_fd_sc_hd__fill_1
XANTENNA_mem_left_track_3.sc_dff_compact_1_.sky130_fd_sc_hd__dfrbp_1_RESET_B _19_/Y
+ VGND VPWR sky130_fd_sc_hd__diode_2
XFILLER_1_3 VGND VPWR sky130_fd_sc_hd__decap_3
XANTENNA_mem_left_track_5.sc_dff_compact_0_.sky130_fd_sc_hd__dfrbp_1_CLK clkbuf_2_2_0_prog_clk/X
+ VGND VPWR sky130_fd_sc_hd__diode_2
XANTENNA_mem_bottom_track_7.sc_dff_compact_0_.sky130_fd_sc_hd__dfrbp_1_RESET_B _19_/Y
+ VGND VPWR sky130_fd_sc_hd__diode_2
X_27_ _27_/HI _27_/LO VGND VPWR sky130_fd_sc_hd__conb_1
XFILLER_20_15 VGND VPWR sky130_fd_sc_hd__decap_4
XANTENNA_mux_bottom_track_13.INVTX1_0_.sky130_fd_sc_hd__inv_1_A bottom_right_grid_pin_13_
+ VGND VPWR sky130_fd_sc_hd__diode_2
Xmem_left_track_17.sc_dff_compact_1_.sky130_fd_sc_hd__dfrbp_1 mem_left_track_17.sc_dff_compact_0_.sky130_fd_sc_hd__dfrbp_1/Q
+ ccff_tail mem_left_track_17.sc_dff_compact_1_.sky130_fd_sc_hd__dfrbp_1/Q_N _19_/Y
+ clkbuf_2_3_0_prog_clk/X VGND VPWR sky130_fd_sc_hd__dfrbp_1
XANTENNA_mem_bottom_track_9.sc_dff_compact_1_.sky130_fd_sc_hd__dfrbp_1_RESET_B _19_/Y
+ VGND VPWR sky130_fd_sc_hd__diode_2
XFILLER_19_144 VGND VPWR sky130_fd_sc_hd__decap_8
XFILLER_10_81 VGND VPWR sky130_fd_sc_hd__decap_4
XFILLER_25_125 VGND VPWR sky130_fd_sc_hd__decap_12
XFILLER_21_91 VGND VPWR sky130_fd_sc_hd__fill_2
XFILLER_21_80 VGND VPWR sky130_fd_sc_hd__fill_2
XFILLER_22_139 VGND VPWR sky130_fd_sc_hd__decap_3
XPHY_0 VGND VPWR sky130_fd_sc_hd__decap_3
XFILLER_7_82 VGND VPWR sky130_fd_sc_hd__decap_3
Xmem_bottom_track_9.sc_dff_compact_0_.sky130_fd_sc_hd__dfrbp_1 mem_bottom_track_9.sc_dff_compact_0_.sky130_fd_sc_hd__dfrbp_1/D
+ mem_bottom_track_9.sc_dff_compact_0_.sky130_fd_sc_hd__dfrbp_1/Q mem_bottom_track_9.sc_dff_compact_0_.sky130_fd_sc_hd__dfrbp_1/Q_N
+ _19_/Y clkbuf_2_1_0_prog_clk/X VGND VPWR sky130_fd_sc_hd__dfrbp_1
XFILLER_8_110 VGND VPWR sky130_fd_sc_hd__fill_2
XANTENNA__42__A _42_/A VGND VPWR sky130_fd_sc_hd__diode_2
XANTENNA_mux_left_track_3.tap_buf4_0_.sky130_fd_sc_hd__inv_1_A mux_left_track_3.tap_buf4_0_.sky130_fd_sc_hd__inv_1/A
+ VGND VPWR sky130_fd_sc_hd__diode_2
XANTENNA_mux_left_track_5.mux_l1_in_0_.TGATE_1_.sky130_fd_sc_hd__ebufn_1_A mux_left_track_5.INVTX1_1_.sky130_fd_sc_hd__inv_1/Y
+ VGND VPWR sky130_fd_sc_hd__diode_2
Xclkbuf_2_0_0_prog_clk clkbuf_2_1_0_prog_clk/A clkbuf_2_0_0_prog_clk/X VGND VPWR sky130_fd_sc_hd__clkbuf_1
XANTENNA_mem_left_track_3.sc_dff_compact_1_.sky130_fd_sc_hd__dfrbp_1_D mem_left_track_3.sc_dff_compact_0_.sky130_fd_sc_hd__dfrbp_1/Q
+ VGND VPWR sky130_fd_sc_hd__diode_2
XFILLER_0_19 VGND VPWR sky130_fd_sc_hd__fill_2
XFILLER_2_116 VGND VPWR sky130_fd_sc_hd__decap_8
X_43_ _43_/A chanx_left_out[3] VGND VPWR sky130_fd_sc_hd__buf_2
XFILLER_18_15 VGND VPWR sky130_fd_sc_hd__decap_4
XFILLER_24_91 VGND VPWR sky130_fd_sc_hd__fill_1
X_26_ _26_/HI _26_/LO VGND VPWR sky130_fd_sc_hd__conb_1
Xmux_bottom_track_9.mux_l2_in_0_.TGATE_1_.sky130_fd_sc_hd__ebufn_1 _36_/HI mux_bottom_track_9.mux_l2_in_0_.TGATE_1_.sky130_fd_sc_hd__ebufn_1/TE_B
+ mux_bottom_track_9.tap_buf4_0_.sky130_fd_sc_hd__inv_1/A VGND VPWR sky130_fd_sc_hd__ebufn_1
XFILLER_1_95 VGND VPWR sky130_fd_sc_hd__fill_2
XFILLER_1_62 VGND VPWR sky130_fd_sc_hd__decap_3
XANTENNA__50__A _50_/A VGND VPWR sky130_fd_sc_hd__diode_2
XANTENNA_mux_bottom_track_7.INVTX1_0_.sky130_fd_sc_hd__inv_1_A bottom_right_grid_pin_7_
+ VGND VPWR sky130_fd_sc_hd__diode_2
XFILLER_19_123 VGND VPWR sky130_fd_sc_hd__fill_1
XFILLER_19_91 VGND VPWR sky130_fd_sc_hd__fill_2
XFILLER_19_80 VGND VPWR sky130_fd_sc_hd__fill_2
XFILLER_10_93 VGND VPWR sky130_fd_sc_hd__fill_2
Xmux_left_track_17.mux_l2_in_0_.TGATE_0_.sky130_fd_sc_hd__ebufn_1 mux_left_track_17.mux_l1_in_0_.TGATE_1_.sky130_fd_sc_hd__ebufn_1/Z
+ mux_left_track_17.mux_l2_in_0_.TGATE_0_.sky130_fd_sc_hd__ebufn_1/TE_B mux_left_track_17.tap_buf4_0_.sky130_fd_sc_hd__inv_1/A
+ VGND VPWR sky130_fd_sc_hd__ebufn_1
XFILLER_25_137 VGND VPWR sky130_fd_sc_hd__decap_12
XANTENNA__45__A _45_/A VGND VPWR sky130_fd_sc_hd__diode_2
XFILLER_16_126 VGND VPWR sky130_fd_sc_hd__decap_8
XFILLER_22_107 VGND VPWR sky130_fd_sc_hd__decap_12
XPHY_1 VGND VPWR sky130_fd_sc_hd__decap_3
XFILLER_21_151 VGND VPWR sky130_fd_sc_hd__fill_2
XFILLER_13_129 VGND VPWR sky130_fd_sc_hd__fill_2
XFILLER_13_118 VGND VPWR sky130_fd_sc_hd__fill_2
XANTENNA_mux_bottom_track_13.mux_l2_in_0_.TGATE_1_.sky130_fd_sc_hd__ebufn_1_A _30_/HI
+ VGND VPWR sky130_fd_sc_hd__diode_2
XANTENNA_mem_bottom_track_9.sc_dff_compact_1_.sky130_fd_sc_hd__dfrbp_1_D mem_bottom_track_9.sc_dff_compact_0_.sky130_fd_sc_hd__dfrbp_1/Q
+ VGND VPWR sky130_fd_sc_hd__diode_2
XANTENNA_mux_left_track_17.mux_l2_in_0_.TGATE_0_.sky130_fd_sc_hd__ebufn_1_A mux_left_track_17.mux_l1_in_0_.TGATE_1_.sky130_fd_sc_hd__ebufn_1/Z
+ VGND VPWR sky130_fd_sc_hd__diode_2
XFILLER_5_114 VGND VPWR sky130_fd_sc_hd__fill_2
XANTENNA_mem_left_track_11.sc_dff_compact_1_.sky130_fd_sc_hd__dfrbp_1_D mem_left_track_11.sc_dff_compact_0_.sky130_fd_sc_hd__dfrbp_1/Q
+ VGND VPWR sky130_fd_sc_hd__diode_2
XANTENNA_mux_left_track_17.INVTX1_1_.sky130_fd_sc_hd__inv_1_A left_bottom_grid_pin_12_
+ VGND VPWR sky130_fd_sc_hd__diode_2
XFILLER_4_62 VGND VPWR sky130_fd_sc_hd__fill_2
XFILLER_3_8 VGND VPWR sky130_fd_sc_hd__fill_2
XANTENNA__53__A _53_/A VGND VPWR sky130_fd_sc_hd__diode_2
X_42_ _42_/A chanx_left_out[4] VGND VPWR sky130_fd_sc_hd__buf_2
XANTENNA_mux_left_track_11.mux_l2_in_0_.TGATE_1_.sky130_fd_sc_hd__ebufn_1_A _20_/HI
+ VGND VPWR sky130_fd_sc_hd__diode_2
XANTENNA__48__A _48_/A VGND VPWR sky130_fd_sc_hd__diode_2
Xmem_bottom_track_11.sc_dff_compact_0_.sky130_fd_sc_hd__dfrbp_1 mem_bottom_track_9.sc_dff_compact_1_.sky130_fd_sc_hd__dfrbp_1/Q
+ mem_bottom_track_11.sc_dff_compact_0_.sky130_fd_sc_hd__dfrbp_1/Q mem_bottom_track_11.sc_dff_compact_0_.sky130_fd_sc_hd__dfrbp_1/Q_N
+ _19_/Y clkbuf_2_1_0_prog_clk/X VGND VPWR sky130_fd_sc_hd__dfrbp_1
X_25_ _25_/HI _25_/LO VGND VPWR sky130_fd_sc_hd__conb_1
XFILLER_19_113 VGND VPWR sky130_fd_sc_hd__decap_6
XFILLER_19_102 VGND VPWR sky130_fd_sc_hd__fill_2
Xmux_bottom_track_17.mux_l2_in_0_.TGATE_0_.sky130_fd_sc_hd__ebufn_1 mux_bottom_track_17.mux_l1_in_0_.TGATE_1_.sky130_fd_sc_hd__ebufn_1/Z
+ mux_bottom_track_17.mux_l2_in_0_.TGATE_0_.sky130_fd_sc_hd__ebufn_1/TE_B mux_bottom_track_17.tap_buf4_0_.sky130_fd_sc_hd__inv_1/A
+ VGND VPWR sky130_fd_sc_hd__ebufn_1
XFILLER_19_135 VGND VPWR sky130_fd_sc_hd__fill_1
XANTENNA_clkbuf_2_2_0_prog_clk_A clkbuf_2_3_0_prog_clk/A VGND VPWR sky130_fd_sc_hd__diode_2
XFILLER_25_149 VGND VPWR sky130_fd_sc_hd__decap_4
Xmux_bottom_track_7.mux_l2_in_0_.TGATE_0_.sky130_fd_sc_hd__ebufn_1 mux_bottom_track_7.mux_l2_in_0_.TGATE_0_.sky130_fd_sc_hd__ebufn_1/A
+ mux_bottom_track_7.mux_l2_in_0_.TGATE_0_.sky130_fd_sc_hd__ebufn_1/TE_B mux_bottom_track_7.tap_buf4_0_.sky130_fd_sc_hd__inv_1/A
+ VGND VPWR sky130_fd_sc_hd__ebufn_1
XPHY_100 VGND VPWR sky130_fd_sc_hd__tapvpwrvgnd_1
XFILLER_22_119 VGND VPWR sky130_fd_sc_hd__decap_12
XPHY_2 VGND VPWR sky130_fd_sc_hd__decap_3
XANTENNA_mux_left_track_9.mux_l2_in_0_.TGATE_0_.sky130_fd_sc_hd__ebufn_1_A mux_left_track_9.mux_l2_in_0_.TGATE_0_.sky130_fd_sc_hd__ebufn_1/A
+ VGND VPWR sky130_fd_sc_hd__diode_2
XANTENNA_mem_left_track_13.sc_dff_compact_0_.sky130_fd_sc_hd__dfrbp_1_RESET_B _19_/Y
+ VGND VPWR sky130_fd_sc_hd__diode_2
XANTENNA_mem_left_track_5.sc_dff_compact_0_.sky130_fd_sc_hd__dfrbp_1_D mem_left_track_3.sc_dff_compact_1_.sky130_fd_sc_hd__dfrbp_1/Q
+ VGND VPWR sky130_fd_sc_hd__diode_2
Xmux_bottom_track_1.tap_buf4_0_.sky130_fd_sc_hd__inv_1 mux_bottom_track_1.tap_buf4_0_.sky130_fd_sc_hd__inv_1/A
+ _55_/A VGND VPWR sky130_fd_sc_hd__inv_1
Xmux_bottom_track_3.INVTX1_1_.sky130_fd_sc_hd__inv_1 chanx_left_in[2] mux_bottom_track_3.INVTX1_1_.sky130_fd_sc_hd__inv_1/Y
+ VGND VPWR sky130_fd_sc_hd__inv_1
XANTENNA_mem_bottom_track_11.sc_dff_compact_0_.sky130_fd_sc_hd__dfrbp_1_CLK clkbuf_2_1_0_prog_clk/X
+ VGND VPWR sky130_fd_sc_hd__diode_2
XFILLER_16_93 VGND VPWR sky130_fd_sc_hd__fill_2
Xmem_left_track_13.sc_dff_compact_1_.sky130_fd_sc_hd__dfrbp_1 mem_left_track_13.sc_dff_compact_1_.sky130_fd_sc_hd__dfrbp_1/D
+ mem_left_track_13.sc_dff_compact_1_.sky130_fd_sc_hd__dfrbp_1/Q mem_left_track_13.sc_dff_compact_1_.sky130_fd_sc_hd__dfrbp_1/Q_N
+ _19_/Y clkbuf_2_3_0_prog_clk/X VGND VPWR sky130_fd_sc_hd__dfrbp_1
XFILLER_8_101 VGND VPWR sky130_fd_sc_hd__fill_1
Xmux_left_track_7.mux_l2_in_0_.TGATE_1_.sky130_fd_sc_hd__ebufn_1 _26_/HI mux_left_track_7.mux_l2_in_0_.TGATE_1_.sky130_fd_sc_hd__ebufn_1/TE_B
+ mux_left_track_7.tap_buf4_0_.sky130_fd_sc_hd__inv_1/A VGND VPWR sky130_fd_sc_hd__ebufn_1
XANTENNA_mem_left_track_15.sc_dff_compact_1_.sky130_fd_sc_hd__dfrbp_1_RESET_B _19_/Y
+ VGND VPWR sky130_fd_sc_hd__diode_2
XANTENNA_mem_left_track_17.sc_dff_compact_0_.sky130_fd_sc_hd__dfrbp_1_CLK clkbuf_2_3_0_prog_clk/X
+ VGND VPWR sky130_fd_sc_hd__diode_2
XANTENNA_mux_bottom_track_7.tap_buf4_0_.sky130_fd_sc_hd__inv_1_A mux_bottom_track_7.tap_buf4_0_.sky130_fd_sc_hd__inv_1/A
+ VGND VPWR sky130_fd_sc_hd__diode_2
XFILLER_4_30 VGND VPWR sky130_fd_sc_hd__fill_1
XANTENNA_mux_left_track_3.mux_l2_in_0_.TGATE_1_.sky130_fd_sc_hd__ebufn_1_A _24_/HI
+ VGND VPWR sky130_fd_sc_hd__diode_2
XFILLER_2_129 VGND VPWR sky130_fd_sc_hd__decap_8
XFILLER_1_151 VGND VPWR sky130_fd_sc_hd__fill_2
X_41_ _41_/A chanx_left_out[5] VGND VPWR sky130_fd_sc_hd__buf_2
Xmem_bottom_track_5.sc_dff_compact_0_.sky130_fd_sc_hd__dfrbp_1 mem_bottom_track_3.sc_dff_compact_1_.sky130_fd_sc_hd__dfrbp_1/Q
+ mem_bottom_track_5.sc_dff_compact_1_.sky130_fd_sc_hd__dfrbp_1/D mem_bottom_track_5.sc_dff_compact_0_.sky130_fd_sc_hd__dfrbp_1/Q_N
+ _19_/Y clkbuf_2_0_0_prog_clk/X VGND VPWR sky130_fd_sc_hd__dfrbp_1
Xmux_left_track_17.mux_l1_in_0_.TGATE_1_.sky130_fd_sc_hd__ebufn_1 mux_left_track_17.INVTX1_1_.sky130_fd_sc_hd__inv_1/Y
+ mux_left_track_17.mux_l1_in_0_.TGATE_1_.sky130_fd_sc_hd__ebufn_1/TE_B mux_left_track_17.mux_l1_in_0_.TGATE_1_.sky130_fd_sc_hd__ebufn_1/Z
+ VGND VPWR sky130_fd_sc_hd__ebufn_1
Xmem_left_track_9.sc_dff_compact_0_.sky130_fd_sc_hd__dfrbp_1 mem_left_track_9.sc_dff_compact_0_.sky130_fd_sc_hd__dfrbp_1/D
+ mem_left_track_9.sc_dff_compact_1_.sky130_fd_sc_hd__dfrbp_1/D mem_left_track_9.sc_dff_compact_0_.sky130_fd_sc_hd__dfrbp_1/Q_N
+ _19_/Y clkbuf_2_2_0_prog_clk/X VGND VPWR sky130_fd_sc_hd__dfrbp_1
Xmux_bottom_track_17.tap_buf4_0_.sky130_fd_sc_hd__inv_1 mux_bottom_track_17.tap_buf4_0_.sky130_fd_sc_hd__inv_1/A
+ _47_/A VGND VPWR sky130_fd_sc_hd__inv_1