* NGSPICE file created from sb_1__1_.ext - technology: sky130A

* Black-box entry subcircuit for sky130_fd_sc_hd__decap_12 abstract view
.subckt sky130_fd_sc_hd__decap_12 VGND VPWR
.ends

* Black-box entry subcircuit for sky130_fd_sc_hd__fill_2 abstract view
.subckt sky130_fd_sc_hd__fill_2 VGND VPWR
.ends

* Black-box entry subcircuit for sky130_fd_sc_hd__tapvpwrvgnd_1 abstract view
.subckt sky130_fd_sc_hd__tapvpwrvgnd_1 VGND VPWR
.ends

* Black-box entry subcircuit for sky130_fd_sc_hd__decap_3 abstract view
.subckt sky130_fd_sc_hd__decap_3 VGND VPWR
.ends

* Black-box entry subcircuit for sky130_fd_sc_hd__decap_8 abstract view
.subckt sky130_fd_sc_hd__decap_8 VGND VPWR
.ends

* Black-box entry subcircuit for sky130_fd_sc_hd__decap_4 abstract view
.subckt sky130_fd_sc_hd__decap_4 VGND VPWR
.ends

* Black-box entry subcircuit for sky130_fd_sc_hd__dfrbp_1 abstract view
.subckt sky130_fd_sc_hd__dfrbp_1 D Q Q_N RESET_B CLK VGND VPWR
.ends

* Black-box entry subcircuit for sky130_fd_sc_hd__diode_2 abstract view
.subckt sky130_fd_sc_hd__diode_2 DIODE VGND VPWR
.ends

* Black-box entry subcircuit for sky130_fd_sc_hd__decap_6 abstract view
.subckt sky130_fd_sc_hd__decap_6 VGND VPWR
.ends

* Black-box entry subcircuit for sky130_fd_sc_hd__clkbuf_1 abstract view
.subckt sky130_fd_sc_hd__clkbuf_1 A X VGND VPWR
.ends

* Black-box entry subcircuit for sky130_fd_sc_hd__fill_1 abstract view
.subckt sky130_fd_sc_hd__fill_1 VGND VPWR
.ends

* Black-box entry subcircuit for sky130_fd_sc_hd__buf_2 abstract view
.subckt sky130_fd_sc_hd__buf_2 A X VGND VPWR
.ends

* Black-box entry subcircuit for sky130_fd_sc_hd__conb_1 abstract view
.subckt sky130_fd_sc_hd__conb_1 HI LO VGND VPWR
.ends

* Black-box entry subcircuit for sky130_fd_sc_hd__clkbuf_16 abstract view
.subckt sky130_fd_sc_hd__clkbuf_16 A X VGND VPWR
.ends

.subckt sb_1__1_ bottom_left_grid_pin_13_ bottom_right_grid_pin_11_ ccff_head ccff_tail
+ chanx_left_in[0] chanx_left_in[1] chanx_left_in[2] chanx_left_in[3] chanx_left_in[4]
+ chanx_left_in[5] chanx_left_in[6] chanx_left_in[7] chanx_left_in[8] chanx_left_out[0]
+ chanx_left_out[1] chanx_left_out[2] chanx_left_out[3] chanx_left_out[4] chanx_left_out[5]
+ chanx_left_out[6] chanx_left_out[7] chanx_left_out[8] chanx_right_in[0] chanx_right_in[1]
+ chanx_right_in[2] chanx_right_in[3] chanx_right_in[4] chanx_right_in[5] chanx_right_in[6]
+ chanx_right_in[7] chanx_right_in[8] chanx_right_out[0] chanx_right_out[1] chanx_right_out[2]
+ chanx_right_out[3] chanx_right_out[4] chanx_right_out[5] chanx_right_out[6] chanx_right_out[7]
+ chanx_right_out[8] chany_bottom_in[0] chany_bottom_in[1] chany_bottom_in[2] chany_bottom_in[3]
+ chany_bottom_in[4] chany_bottom_in[5] chany_bottom_in[6] chany_bottom_in[7] chany_bottom_in[8]
+ chany_bottom_out[0] chany_bottom_out[1] chany_bottom_out[2] chany_bottom_out[3]
+ chany_bottom_out[4] chany_bottom_out[5] chany_bottom_out[6] chany_bottom_out[7]
+ chany_bottom_out[8] chany_top_in[0] chany_top_in[1] chany_top_in[2] chany_top_in[3]
+ chany_top_in[4] chany_top_in[5] chany_top_in[6] chany_top_in[7] chany_top_in[8]
+ chany_top_out[0] chany_top_out[1] chany_top_out[2] chany_top_out[3] chany_top_out[4]
+ chany_top_out[5] chany_top_out[6] chany_top_out[7] chany_top_out[8] left_bottom_grid_pin_12_
+ left_top_grid_pin_10_ pReset prog_clk right_bottom_grid_pin_12_ right_top_grid_pin_10_
+ top_left_grid_pin_13_ top_right_grid_pin_11_ VPWR VGND
XFILLER_234_1081 VGND VPWR sky130_fd_sc_hd__decap_12
XFILLER_79_391 VGND VPWR sky130_fd_sc_hd__decap_12
XFILLER_80_1276 VGND VPWR sky130_fd_sc_hd__decap_12
XFILLER_94_361 VGND VPWR sky130_fd_sc_hd__decap_12
XFILLER_67_586 VGND VPWR sky130_fd_sc_hd__decap_12
XFILLER_27_428 VGND VPWR sky130_fd_sc_hd__decap_12
XFILLER_227_367 VGND VPWR sky130_fd_sc_hd__fill_2
XFILLER_223_98 VGND VPWR sky130_fd_sc_hd__decap_12
XFILLER_199_208 VGND VPWR sky130_fd_sc_hd__decap_12
XFILLER_82_556 VGND VPWR sky130_fd_sc_hd__decap_12
XFILLER_208_581 VGND VPWR sky130_fd_sc_hd__decap_12
XFILLER_242_337 VGND VPWR sky130_fd_sc_hd__decap_12
XPHY_3109 VGND VPWR sky130_fd_sc_hd__tapvpwrvgnd_1
XFILLER_39_1123 VGND VPWR sky130_fd_sc_hd__decap_12
XFILLER_36_995 VGND VPWR sky130_fd_sc_hd__decap_12
XFILLER_243_1306 VGND VPWR sky130_fd_sc_hd__decap_12
XFILLER_63_781 VGND VPWR sky130_fd_sc_hd__decap_12
XFILLER_223_562 VGND VPWR sky130_fd_sc_hd__decap_12
XFILLER_23_623 VGND VPWR sky130_fd_sc_hd__decap_12
XPHY_2408 VGND VPWR sky130_fd_sc_hd__tapvpwrvgnd_1
XPHY_2419 VGND VPWR sky130_fd_sc_hd__tapvpwrvgnd_1
XFILLER_208_1459 VGND VPWR sky130_fd_sc_hd__decap_12
XFILLER_195_403 VGND VPWR sky130_fd_sc_hd__decap_12
XFILLER_168_617 VGND VPWR sky130_fd_sc_hd__decap_12
XPHY_1707 VGND VPWR sky130_fd_sc_hd__tapvpwrvgnd_1
XFILLER_74_1069 VGND VPWR sky130_fd_sc_hd__decap_12
XFILLER_211_757 VGND VPWR sky130_fd_sc_hd__decap_12
XFILLER_11_818 VGND VPWR sky130_fd_sc_hd__decap_12
XPHY_1718 VGND VPWR sky130_fd_sc_hd__tapvpwrvgnd_1
XFILLER_196_959 VGND VPWR sky130_fd_sc_hd__decap_12
XFILLER_22_166 VGND VPWR sky130_fd_sc_hd__decap_12
XPHY_1729 VGND VPWR sky130_fd_sc_hd__tapvpwrvgnd_1
XFILLER_143_1440 VGND VPWR sky130_fd_sc_hd__decap_12
XFILLER_149_842 VGND VPWR sky130_fd_sc_hd__decap_12
XFILLER_210_267 VGND VPWR sky130_fd_sc_hd__decap_3
XFILLER_17_1465 VGND VPWR sky130_fd_sc_hd__decap_8
XFILLER_241_1074 VGND VPWR sky130_fd_sc_hd__decap_12
XFILLER_143_1473 VGND VPWR sky130_fd_sc_hd__decap_3
XFILLER_13_1318 VGND VPWR sky130_fd_sc_hd__decap_12
XFILLER_104_1435 VGND VPWR sky130_fd_sc_hd__decap_12
XFILLER_164_812 VGND VPWR sky130_fd_sc_hd__decap_12
XFILLER_148_385 VGND VPWR sky130_fd_sc_hd__decap_12
XFILLER_202_1069 VGND VPWR sky130_fd_sc_hd__decap_12
XFILLER_175_171 VGND VPWR sky130_fd_sc_hd__decap_12
XFILLER_108_227 VGND VPWR sky130_fd_sc_hd__decap_12
XFILLER_190_141 VGND VPWR sky130_fd_sc_hd__decap_12
XFILLER_123_208 VGND VPWR sky130_fd_sc_hd__decap_12
XFILLER_11_1086 VGND VPWR sky130_fd_sc_hd__decap_12
XFILLER_117_794 VGND VPWR sky130_fd_sc_hd__decap_12
XFILLER_46_1105 VGND VPWR sky130_fd_sc_hd__decap_12
XFILLER_104_422 VGND VPWR sky130_fd_sc_hd__decap_12
XFILLER_137_1233 VGND VPWR sky130_fd_sc_hd__decap_12
XFILLER_77_15 VGND VPWR sky130_fd_sc_hd__decap_12
XFILLER_132_764 VGND VPWR sky130_fd_sc_hd__decap_12
XFILLER_105_989 VGND VPWR sky130_fd_sc_hd__decap_12
XFILLER_77_306 VGND VPWR sky130_fd_sc_hd__decap_12
XFILLER_77_59 VGND VPWR sky130_fd_sc_hd__fill_2
XFILLER_63_1452 VGND VPWR sky130_fd_sc_hd__decap_12
XFILLER_58_520 VGND VPWR sky130_fd_sc_hd__decap_12
XFILLER_120_959 VGND VPWR sky130_fd_sc_hd__decap_12
XFILLER_150_1422 VGND VPWR sky130_fd_sc_hd__decap_12
XFILLER_218_301 VGND VPWR sky130_fd_sc_hd__decap_12
XFILLER_24_1447 VGND VPWR sky130_fd_sc_hd__decap_12
XFILLER_86_873 VGND VPWR sky130_fd_sc_hd__decap_12
XPHY_5001 VGND VPWR sky130_fd_sc_hd__tapvpwrvgnd_1
XFILLER_46_715 VGND VPWR sky130_fd_sc_hd__decap_12
XFILLER_73_501 VGND VPWR sky130_fd_sc_hd__decap_12
XFILLER_246_654 VGND VPWR sky130_fd_sc_hd__decap_12
XFILLER_218_345 VGND VPWR sky130_fd_sc_hd__decap_12
XPHY_5012 VGND VPWR sky130_fd_sc_hd__tapvpwrvgnd_1
XFILLER_111_1428 VGND VPWR sky130_fd_sc_hd__decap_12
XFILLER_219_879 VGND VPWR sky130_fd_sc_hd__decap_12
XPHY_5023 VGND VPWR sky130_fd_sc_hd__tapvpwrvgnd_1
XFILLER_206_507 VGND VPWR sky130_fd_sc_hd__decap_12
XPHY_5034 VGND VPWR sky130_fd_sc_hd__tapvpwrvgnd_1
XPHY_5045 VGND VPWR sky130_fd_sc_hd__tapvpwrvgnd_1
XFILLER_133_98 VGND VPWR sky130_fd_sc_hd__decap_12
XPHY_4300 VGND VPWR sky130_fd_sc_hd__tapvpwrvgnd_1
XFILLER_172_3 VGND VPWR sky130_fd_sc_hd__decap_12
XPHY_4311 VGND VPWR sky130_fd_sc_hd__tapvpwrvgnd_1
XFILLER_248_1239 VGND VPWR sky130_fd_sc_hd__decap_12
XPHY_5056 VGND VPWR sky130_fd_sc_hd__tapvpwrvgnd_1
XFILLER_27_940 VGND VPWR sky130_fd_sc_hd__decap_12
XFILLER_234_849 VGND VPWR sky130_fd_sc_hd__decap_12
XPHY_5067 VGND VPWR sky130_fd_sc_hd__tapvpwrvgnd_1
XPHY_4322 VGND VPWR sky130_fd_sc_hd__tapvpwrvgnd_1
XPHY_5078 VGND VPWR sky130_fd_sc_hd__tapvpwrvgnd_1
XPHY_4333 VGND VPWR sky130_fd_sc_hd__tapvpwrvgnd_1
XFILLER_199_720 VGND VPWR sky130_fd_sc_hd__decap_12
XPHY_5089 VGND VPWR sky130_fd_sc_hd__tapvpwrvgnd_1
XFILLER_45_269 VGND VPWR sky130_fd_sc_hd__decap_12
XPHY_4344 VGND VPWR sky130_fd_sc_hd__tapvpwrvgnd_1
XFILLER_2_1276 VGND VPWR sky130_fd_sc_hd__decap_12
XPHY_3610 VGND VPWR sky130_fd_sc_hd__tapvpwrvgnd_1
XPHY_4355 VGND VPWR sky130_fd_sc_hd__tapvpwrvgnd_1
XFILLER_42_910 VGND VPWR sky130_fd_sc_hd__decap_12
XPHY_3621 VGND VPWR sky130_fd_sc_hd__tapvpwrvgnd_1
XPHY_4366 VGND VPWR sky130_fd_sc_hd__tapvpwrvgnd_1
XFILLER_26_483 VGND VPWR sky130_fd_sc_hd__decap_12
XFILLER_57_1245 VGND VPWR sky130_fd_sc_hd__decap_12
XPHY_3632 VGND VPWR sky130_fd_sc_hd__tapvpwrvgnd_1
XPHY_4377 VGND VPWR sky130_fd_sc_hd__tapvpwrvgnd_1
XFILLER_60_239 VGND VPWR sky130_fd_sc_hd__decap_12
XPHY_3643 VGND VPWR sky130_fd_sc_hd__tapvpwrvgnd_1
XPHY_4388 VGND VPWR sky130_fd_sc_hd__tapvpwrvgnd_1
XPHY_3654 VGND VPWR sky130_fd_sc_hd__tapvpwrvgnd_1
XPHY_4399 VGND VPWR sky130_fd_sc_hd__tapvpwrvgnd_1
XPHY_2920 VGND VPWR sky130_fd_sc_hd__tapvpwrvgnd_1
XPHY_3665 VGND VPWR sky130_fd_sc_hd__tapvpwrvgnd_1
XFILLER_144_1215 VGND VPWR sky130_fd_sc_hd__decap_12
XFILLER_198_263 VGND VPWR sky130_fd_sc_hd__decap_12
XPHY_2931 VGND VPWR sky130_fd_sc_hd__tapvpwrvgnd_1
XPHY_3676 VGND VPWR sky130_fd_sc_hd__tapvpwrvgnd_1
XPHY_2942 VGND VPWR sky130_fd_sc_hd__tapvpwrvgnd_1
XFILLER_158_105 VGND VPWR sky130_fd_sc_hd__decap_12
XFILLER_14_678 VGND VPWR sky130_fd_sc_hd__decap_12
XFILLER_41_464 VGND VPWR sky130_fd_sc_hd__decap_12
XPHY_3687 VGND VPWR sky130_fd_sc_hd__tapvpwrvgnd_1
XPHY_2953 VGND VPWR sky130_fd_sc_hd__tapvpwrvgnd_1
XPHY_3698 VGND VPWR sky130_fd_sc_hd__tapvpwrvgnd_1
XFILLER_201_245 VGND VPWR sky130_fd_sc_hd__decap_12
XPHY_2964 VGND VPWR sky130_fd_sc_hd__tapvpwrvgnd_1
XFILLER_109_1379 VGND VPWR sky130_fd_sc_hd__decap_12
XPHY_2975 VGND VPWR sky130_fd_sc_hd__tapvpwrvgnd_1
XPHY_2986 VGND VPWR sky130_fd_sc_hd__tapvpwrvgnd_1
XFILLER_139_330 VGND VPWR sky130_fd_sc_hd__decap_12
XPHY_2997 VGND VPWR sky130_fd_sc_hd__tapvpwrvgnd_1
XFILLER_9_159 VGND VPWR sky130_fd_sc_hd__decap_12
XFILLER_167_672 VGND VPWR sky130_fd_sc_hd__decap_12
XFILLER_6_800 VGND VPWR sky130_fd_sc_hd__decap_12
XFILLER_154_300 VGND VPWR sky130_fd_sc_hd__decap_12
XFILLER_127_525 VGND VPWR sky130_fd_sc_hd__decap_12
XFILLER_10_873 VGND VPWR sky130_fd_sc_hd__decap_12
XFILLER_182_642 VGND VPWR sky130_fd_sc_hd__decap_12
XFILLER_177_1013 VGND VPWR sky130_fd_sc_hd__decap_12
XFILLER_155_867 VGND VPWR sky130_fd_sc_hd__decap_12
XFILLER_5_354 VGND VPWR sky130_fd_sc_hd__decap_12
XFILLER_138_1008 VGND VPWR sky130_fd_sc_hd__decap_12
XFILLER_170_837 VGND VPWR sky130_fd_sc_hd__decap_12
XFILLER_123_720 VGND VPWR sky130_fd_sc_hd__decap_12
XFILLER_218_1032 VGND VPWR sky130_fd_sc_hd__decap_12
XFILLER_181_196 VGND VPWR sky130_fd_sc_hd__decap_12
XFILLER_68_1374 VGND VPWR sky130_fd_sc_hd__decap_12
XFILLER_107_293 VGND VPWR sky130_fd_sc_hd__decap_12
XFILLER_64_1227 VGND VPWR sky130_fd_sc_hd__decap_12
XFILLER_69_818 VGND VPWR sky130_fd_sc_hd__decap_12
XFILLER_155_1355 VGND VPWR sky130_fd_sc_hd__decap_12
XFILLER_122_263 VGND VPWR sky130_fd_sc_hd__decap_12
XFILLER_151_1208 VGND VPWR sky130_fd_sc_hd__decap_12
XFILLER_231_1221 VGND VPWR sky130_fd_sc_hd__decap_12
XFILLER_209_301 VGND VPWR sky130_fd_sc_hd__decap_4
XFILLER_95_147 VGND VPWR sky130_fd_sc_hd__decap_12
XFILLER_76_361 VGND VPWR sky130_fd_sc_hd__decap_12
XFILLER_49_586 VGND VPWR sky130_fd_sc_hd__decap_12
XFILLER_97_1025 VGND VPWR sky130_fd_sc_hd__decap_12
XFILLER_209_367 VGND VPWR sky130_fd_sc_hd__decap_12
XFILLER_190_93 VGND VPWR sky130_fd_sc_hd__decap_12
XFILLER_188_1142 VGND VPWR sky130_fd_sc_hd__decap_12
XPHY_6280 VGND VPWR sky130_fd_sc_hd__tapvpwrvgnd_1
XPHY_6291 VGND VPWR sky130_fd_sc_hd__tapvpwrvgnd_1
XFILLER_64_556 VGND VPWR sky130_fd_sc_hd__decap_12
XFILLER_91_342 VGND VPWR sky130_fd_sc_hd__decap_12
XFILLER_224_337 VGND VPWR sky130_fd_sc_hd__fill_2
XFILLER_92_898 VGND VPWR sky130_fd_sc_hd__decap_12
XPHY_5590 VGND VPWR sky130_fd_sc_hd__tapvpwrvgnd_1
XFILLER_18_995 VGND VPWR sky130_fd_sc_hd__decap_12
XFILLER_45_781 VGND VPWR sky130_fd_sc_hd__decap_12
XFILLER_229_1172 VGND VPWR sky130_fd_sc_hd__decap_12
XFILLER_205_562 VGND VPWR sky130_fd_sc_hd__decap_12
XFILLER_225_1025 VGND VPWR sky130_fd_sc_hd__decap_12
XFILLER_177_403 VGND VPWR sky130_fd_sc_hd__decap_12
XFILLER_60_751 VGND VPWR sky130_fd_sc_hd__decap_12
XFILLER_75_1367 VGND VPWR sky130_fd_sc_hd__decap_12
XFILLER_220_532 VGND VPWR sky130_fd_sc_hd__decap_12
XFILLER_162_1337 VGND VPWR sky130_fd_sc_hd__decap_12
XFILLER_178_959 VGND VPWR sky130_fd_sc_hd__decap_12
XFILLER_34_1020 VGND VPWR sky130_fd_sc_hd__decap_12
XFILLER_242_1361 VGND VPWR sky130_fd_sc_hd__decap_12
XFILLER_121_1001 VGND VPWR sky130_fd_sc_hd__decap_12
XFILLER_146_812 VGND VPWR sky130_fd_sc_hd__decap_12
XFILLER_203_1367 VGND VPWR sky130_fd_sc_hd__decap_12
XFILLER_157_171 VGND VPWR sky130_fd_sc_hd__decap_12
XFILLER_199_1282 VGND VPWR sky130_fd_sc_hd__decap_12
XFILLER_218_32 VGND VPWR sky130_fd_sc_hd__decap_12
XFILLER_195_1135 VGND VPWR sky130_fd_sc_hd__decap_12
XFILLER_172_141 VGND VPWR sky130_fd_sc_hd__decap_12
XFILLER_105_208 VGND VPWR sky130_fd_sc_hd__decap_12
XFILLER_236_1154 VGND VPWR sky130_fd_sc_hd__decap_12
XFILLER_114_764 VGND VPWR sky130_fd_sc_hd__decap_12
XFILLER_141_550 VGND VPWR sky130_fd_sc_hd__decap_12
XFILLER_99_464 VGND VPWR sky130_fd_sc_hd__decap_12
XFILLER_59_306 VGND VPWR sky130_fd_sc_hd__decap_12
XFILLER_82_1349 VGND VPWR sky130_fd_sc_hd__decap_12
XFILLER_101_403 VGND VPWR sky130_fd_sc_hd__decap_12
XFILLER_87_659 VGND VPWR sky130_fd_sc_hd__decap_12
XFILLER_102_959 VGND VPWR sky130_fd_sc_hd__decap_12
XFILLER_45_1160 VGND VPWR sky130_fd_sc_hd__decap_12
XFILLER_41_1013 VGND VPWR sky130_fd_sc_hd__decap_12
XFILLER_132_1130 VGND VPWR sky130_fd_sc_hd__decap_12
XFILLER_68_873 VGND VPWR sky130_fd_sc_hd__decap_12
XFILLER_228_654 VGND VPWR sky130_fd_sc_hd__decap_12
XFILLER_28_715 VGND VPWR sky130_fd_sc_hd__decap_12
XFILLER_55_501 VGND VPWR sky130_fd_sc_hd__decap_12
XFILLER_210_1349 VGND VPWR sky130_fd_sc_hd__decap_12
XFILLER_216_849 VGND VPWR sky130_fd_sc_hd__decap_12
XFILLER_243_635 VGND VPWR sky130_fd_sc_hd__decap_12
XFILLER_27_269 VGND VPWR sky130_fd_sc_hd__decap_12
XFILLER_24_910 VGND VPWR sky130_fd_sc_hd__decap_12
XFILLER_63_39 VGND VPWR sky130_fd_sc_hd__decap_12
XFILLER_242_178 VGND VPWR sky130_fd_sc_hd__decap_12
XPHY_905 VGND VPWR sky130_fd_sc_hd__tapvpwrvgnd_1
XFILLER_42_239 VGND VPWR sky130_fd_sc_hd__decap_12
XPHY_2205 VGND VPWR sky130_fd_sc_hd__tapvpwrvgnd_1
XFILLER_179_39 VGND VPWR sky130_fd_sc_hd__decap_12
XPHY_916 VGND VPWR sky130_fd_sc_hd__tapvpwrvgnd_1
XPHY_2216 VGND VPWR sky130_fd_sc_hd__tapvpwrvgnd_1
XFILLER_247_1294 VGND VPWR sky130_fd_sc_hd__decap_12
XPHY_927 VGND VPWR sky130_fd_sc_hd__tapvpwrvgnd_1
XPHY_938 VGND VPWR sky130_fd_sc_hd__tapvpwrvgnd_1
XPHY_2227 VGND VPWR sky130_fd_sc_hd__tapvpwrvgnd_1
XPHY_949 VGND VPWR sky130_fd_sc_hd__tapvpwrvgnd_1
XPHY_2238 VGND VPWR sky130_fd_sc_hd__tapvpwrvgnd_1
XFILLER_243_1147 VGND VPWR sky130_fd_sc_hd__decap_12
XFILLER_223_392 VGND VPWR sky130_fd_sc_hd__decap_12
XFILLER_23_464 VGND VPWR sky130_fd_sc_hd__decap_12
XPHY_1504 VGND VPWR sky130_fd_sc_hd__tapvpwrvgnd_1
XPHY_2249 VGND VPWR sky130_fd_sc_hd__tapvpwrvgnd_1
XPHY_1515 VGND VPWR sky130_fd_sc_hd__tapvpwrvgnd_1
XFILLER_180_1459 VGND VPWR sky130_fd_sc_hd__decap_12
XPHY_1526 VGND VPWR sky130_fd_sc_hd__tapvpwrvgnd_1
XPHY_1537 VGND VPWR sky130_fd_sc_hd__tapvpwrvgnd_1
XPHY_1548 VGND VPWR sky130_fd_sc_hd__tapvpwrvgnd_1
XFILLER_11_659 VGND VPWR sky130_fd_sc_hd__decap_12
XPHY_1559 VGND VPWR sky130_fd_sc_hd__tapvpwrvgnd_1
XFILLER_52_1142 VGND VPWR sky130_fd_sc_hd__decap_12
XFILLER_211_598 VGND VPWR sky130_fd_sc_hd__decap_12
XFILLER_183_428 VGND VPWR sky130_fd_sc_hd__decap_12
XFILLER_149_672 VGND VPWR sky130_fd_sc_hd__decap_12
XFILLER_195_27 VGND VPWR sky130_fd_sc_hd__decap_12
XFILLER_136_300 VGND VPWR sky130_fd_sc_hd__decap_12
XFILLER_178_1300 VGND VPWR sky130_fd_sc_hd__decap_12
XFILLER_109_525 VGND VPWR sky130_fd_sc_hd__decap_12
XFILLER_12_32 VGND VPWR sky130_fd_sc_hd__decap_12
XFILLER_6_129 VGND VPWR sky130_fd_sc_hd__decap_12
XFILLER_164_642 VGND VPWR sky130_fd_sc_hd__decap_12
XFILLER_104_1276 VGND VPWR sky130_fd_sc_hd__decap_12
XFILLER_128_32 VGND VPWR sky130_fd_sc_hd__decap_12
XFILLER_137_867 VGND VPWR sky130_fd_sc_hd__decap_12
XFILLER_139_1306 VGND VPWR sky130_fd_sc_hd__decap_12
XFILLER_192_995 VGND VPWR sky130_fd_sc_hd__decap_12
XFILLER_152_837 VGND VPWR sky130_fd_sc_hd__decap_12
XFILLER_219_1330 VGND VPWR sky130_fd_sc_hd__decap_12
XFILLER_105_720 VGND VPWR sky130_fd_sc_hd__decap_12
XFILLER_2_324 VGND VPWR sky130_fd_sc_hd__decap_12
XFILLER_163_196 VGND VPWR sky130_fd_sc_hd__decap_12
XFILLER_104_263 VGND VPWR sky130_fd_sc_hd__decap_12
XFILLER_137_1074 VGND VPWR sky130_fd_sc_hd__decap_12
XFILLER_77_147 VGND VPWR sky130_fd_sc_hd__decap_12
XFILLER_63_1282 VGND VPWR sky130_fd_sc_hd__decap_12
XFILLER_150_1252 VGND VPWR sky130_fd_sc_hd__decap_12
XFILLER_58_361 VGND VPWR sky130_fd_sc_hd__decap_12
XFILLER_92_117 VGND VPWR sky130_fd_sc_hd__decap_12
XFILLER_189_1440 VGND VPWR sky130_fd_sc_hd__decap_12
XFILLER_4_1349 VGND VPWR sky130_fd_sc_hd__decap_12
XFILLER_37_51 VGND VPWR sky130_fd_sc_hd__decap_8
XFILLER_24_1288 VGND VPWR sky130_fd_sc_hd__decap_12
XFILLER_37_62 VGND VPWR sky130_fd_sc_hd__decap_12
XFILLER_189_1473 VGND VPWR sky130_fd_sc_hd__decap_3
XFILLER_46_556 VGND VPWR sky130_fd_sc_hd__decap_12
XFILLER_246_495 VGND VPWR sky130_fd_sc_hd__decap_12
XFILLER_59_1318 VGND VPWR sky130_fd_sc_hd__decap_12
XFILLER_73_342 VGND VPWR sky130_fd_sc_hd__decap_12
XFILLER_206_337 VGND VPWR sky130_fd_sc_hd__decap_12
XFILLER_111_1269 VGND VPWR sky130_fd_sc_hd__decap_12
XFILLER_233_123 VGND VPWR sky130_fd_sc_hd__decap_12
XPHY_4130 VGND VPWR sky130_fd_sc_hd__tapvpwrvgnd_1
XFILLER_74_898 VGND VPWR sky130_fd_sc_hd__decap_12
XFILLER_248_1069 VGND VPWR sky130_fd_sc_hd__decap_12
XPHY_4141 VGND VPWR sky130_fd_sc_hd__tapvpwrvgnd_1
Xmem_bottom_track_1.sc_dff_compact_1_.sky130_fd_sc_hd__dfrbp_1 mem_bottom_track_1.sc_dff_compact_0_.sky130_fd_sc_hd__dfrbp_1/Q
+ mem_bottom_track_1.sc_dff_compact_2_.sky130_fd_sc_hd__dfrbp_1/D mem_bottom_track_1.sc_dff_compact_1_.sky130_fd_sc_hd__dfrbp_1/Q_N
+ pReset clkbuf_3_2_0_prog_clk/X VGND VPWR sky130_fd_sc_hd__dfrbp_1
XFILLER_27_781 VGND VPWR sky130_fd_sc_hd__decap_12
XPHY_4152 VGND VPWR sky130_fd_sc_hd__tapvpwrvgnd_1
XFILLER_61_537 VGND VPWR sky130_fd_sc_hd__decap_12
XPHY_4163 VGND VPWR sky130_fd_sc_hd__tapvpwrvgnd_1
XFILLER_199_550 VGND VPWR sky130_fd_sc_hd__decap_12
XPHY_4174 VGND VPWR sky130_fd_sc_hd__tapvpwrvgnd_1
XPHY_3440 VGND VPWR sky130_fd_sc_hd__tapvpwrvgnd_1
XPHY_4185 VGND VPWR sky130_fd_sc_hd__tapvpwrvgnd_1
XFILLER_183_1050 VGND VPWR sky130_fd_sc_hd__decap_12
XPHY_3451 VGND VPWR sky130_fd_sc_hd__tapvpwrvgnd_1
XFILLER_42_751 VGND VPWR sky130_fd_sc_hd__decap_12
XPHY_4196 VGND VPWR sky130_fd_sc_hd__tapvpwrvgnd_1
XFILLER_159_403 VGND VPWR sky130_fd_sc_hd__decap_12
XFILLER_242_690 VGND VPWR sky130_fd_sc_hd__decap_12
XPHY_3462 VGND VPWR sky130_fd_sc_hd__tapvpwrvgnd_1
XFILLER_202_532 VGND VPWR sky130_fd_sc_hd__decap_12
XPHY_3473 VGND VPWR sky130_fd_sc_hd__tapvpwrvgnd_1
XFILLER_187_745 VGND VPWR sky130_fd_sc_hd__decap_12
XFILLER_57_1086 VGND VPWR sky130_fd_sc_hd__decap_12
XPHY_3484 VGND VPWR sky130_fd_sc_hd__tapvpwrvgnd_1
XPHY_2750 VGND VPWR sky130_fd_sc_hd__tapvpwrvgnd_1
XPHY_3495 VGND VPWR sky130_fd_sc_hd__tapvpwrvgnd_1
XPHY_2761 VGND VPWR sky130_fd_sc_hd__tapvpwrvgnd_1
XFILLER_144_1056 VGND VPWR sky130_fd_sc_hd__decap_12
XPHY_2772 VGND VPWR sky130_fd_sc_hd__tapvpwrvgnd_1
XPHY_2783 VGND VPWR sky130_fd_sc_hd__tapvpwrvgnd_1
XPHY_2794 VGND VPWR sky130_fd_sc_hd__tapvpwrvgnd_1
XFILLER_128_812 VGND VPWR sky130_fd_sc_hd__decap_12
XFILLER_186_288 VGND VPWR sky130_fd_sc_hd__decap_12
XFILLER_70_1264 VGND VPWR sky130_fd_sc_hd__decap_12
XFILLER_139_171 VGND VPWR sky130_fd_sc_hd__decap_12
XFILLER_183_940 VGND VPWR sky130_fd_sc_hd__decap_12
XFILLER_196_1422 VGND VPWR sky130_fd_sc_hd__decap_12
XFILLER_122_1398 VGND VPWR sky130_fd_sc_hd__decap_12
XFILLER_154_141 VGND VPWR sky130_fd_sc_hd__decap_12
XFILLER_182_483 VGND VPWR sky130_fd_sc_hd__decap_12
XFILLER_157_1428 VGND VPWR sky130_fd_sc_hd__decap_12
XFILLER_5_184 VGND VPWR sky130_fd_sc_hd__decap_12
XFILLER_29_1111 VGND VPWR sky130_fd_sc_hd__decap_12
XFILLER_237_1452 VGND VPWR sky130_fd_sc_hd__decap_12
XFILLER_170_678 VGND VPWR sky130_fd_sc_hd__decap_12
XFILLER_123_550 VGND VPWR sky130_fd_sc_hd__decap_12
XFILLER_190_1032 VGND VPWR sky130_fd_sc_hd__decap_12
XFILLER_78_80 VGND VPWR sky130_fd_sc_hd__decap_12
XFILLER_96_434 VGND VPWR sky130_fd_sc_hd__decap_12
XFILLER_42_1300 VGND VPWR sky130_fd_sc_hd__decap_12
XFILLER_69_659 VGND VPWR sky130_fd_sc_hd__decap_12
XFILLER_111_745 VGND VPWR sky130_fd_sc_hd__decap_12
XFILLER_155_1196 VGND VPWR sky130_fd_sc_hd__decap_12
XFILLER_151_1038 VGND VPWR sky130_fd_sc_hd__decap_12
XFILLER_84_629 VGND VPWR sky130_fd_sc_hd__decap_12
XFILLER_237_440 VGND VPWR sky130_fd_sc_hd__decap_12
XFILLER_231_1062 VGND VPWR sky130_fd_sc_hd__decap_12
XFILLER_37_501 VGND VPWR sky130_fd_sc_hd__decap_12
XFILLER_110_288 VGND VPWR sky130_fd_sc_hd__decap_12
XFILLER_209_142 VGND VPWR sky130_fd_sc_hd__fill_2
XFILLER_204_56 VGND VPWR sky130_fd_sc_hd__decap_12
XANTENNA_mem_bottom_track_1.sc_dff_compact_5_.sky130_fd_sc_hd__dfrbp_1_D mem_bottom_track_1.sc_dff_compact_5_.sky130_fd_sc_hd__dfrbp_1/D
+ VGND VPWR sky130_fd_sc_hd__diode_2
XFILLER_225_635 VGND VPWR sky130_fd_sc_hd__decap_12
XFILLER_240_605 VGND VPWR sky130_fd_sc_hd__decap_12
XFILLER_24_239 VGND VPWR sky130_fd_sc_hd__decap_12
XFILLER_224_178 VGND VPWR sky130_fd_sc_hd__decap_12
XFILLER_220_44 VGND VPWR sky130_fd_sc_hd__decap_12
XFILLER_127_1221 VGND VPWR sky130_fd_sc_hd__decap_12
XFILLER_221_830 VGND VPWR sky130_fd_sc_hd__decap_12
XFILLER_60_581 VGND VPWR sky130_fd_sc_hd__decap_12
XFILLER_220_362 VGND VPWR sky130_fd_sc_hd__decap_12
XFILLER_53_1440 VGND VPWR sky130_fd_sc_hd__decap_12
XFILLER_20_434 VGND VPWR sky130_fd_sc_hd__decap_12
XFILLER_162_1178 VGND VPWR sky130_fd_sc_hd__decap_12
XFILLER_140_1410 VGND VPWR sky130_fd_sc_hd__decap_12
XFILLER_197_1208 VGND VPWR sky130_fd_sc_hd__decap_12
XFILLER_165_428 VGND VPWR sky130_fd_sc_hd__decap_12
XFILLER_53_1473 VGND VPWR sky130_fd_sc_hd__decap_3
XFILLER_242_1191 VGND VPWR sky130_fd_sc_hd__decap_12
XFILLER_14_1435 VGND VPWR sky130_fd_sc_hd__decap_12
XFILLER_118_300 VGND VPWR sky130_fd_sc_hd__decap_12
XFILLER_146_642 VGND VPWR sky130_fd_sc_hd__decap_12
XFILLER_101_1416 VGND VPWR sky130_fd_sc_hd__decap_12
XFILLER_119_867 VGND VPWR sky130_fd_sc_hd__decap_12
XFILLER_229_86 VGND VPWR sky130_fd_sc_hd__decap_12
XFILLER_238_1227 VGND VPWR sky130_fd_sc_hd__decap_12
XFILLER_174_995 VGND VPWR sky130_fd_sc_hd__decap_12
XFILLER_134_837 VGND VPWR sky130_fd_sc_hd__decap_12
XFILLER_161_623 VGND VPWR sky130_fd_sc_hd__decap_12
XFILLER_145_196 VGND VPWR sky130_fd_sc_hd__decap_12
XFILLER_47_1233 VGND VPWR sky130_fd_sc_hd__decap_12
XFILLER_138_1361 VGND VPWR sky130_fd_sc_hd__decap_12
XFILLER_160_166 VGND VPWR sky130_fd_sc_hd__decap_12
XFILLER_245_74 VGND VPWR sky130_fd_sc_hd__decap_12
XFILLER_134_1203 VGND VPWR sky130_fd_sc_hd__decap_12
XFILLER_248_727 VGND VPWR sky130_fd_sc_hd__decap_12
XFILLER_141_391 VGND VPWR sky130_fd_sc_hd__decap_12
XFILLER_59_147 VGND VPWR sky130_fd_sc_hd__decap_12
XFILLER_60_1422 VGND VPWR sky130_fd_sc_hd__decap_12
XFILLER_229_952 VGND VPWR sky130_fd_sc_hd__decap_12
XFILLER_87_489 VGND VPWR sky130_fd_sc_hd__decap_12
XFILLER_74_117 VGND VPWR sky130_fd_sc_hd__decap_12
XFILLER_114_56 VGND VPWR sky130_fd_sc_hd__decap_12
XFILLER_21_1428 VGND VPWR sky130_fd_sc_hd__decap_12
XFILLER_244_922 VGND VPWR sky130_fd_sc_hd__decap_12
XFILLER_74_27 VGND VPWR sky130_fd_sc_hd__decap_4
XFILLER_249_1334 VGND VPWR sky130_fd_sc_hd__decap_12
XFILLER_167_1001 VGND VPWR sky130_fd_sc_hd__decap_12
XFILLER_28_556 VGND VPWR sky130_fd_sc_hd__decap_12
XFILLER_55_342 VGND VPWR sky130_fd_sc_hd__decap_12
XFILLER_228_495 VGND VPWR sky130_fd_sc_hd__decap_12
XFILLER_215_123 VGND VPWR sky130_fd_sc_hd__decap_12
XFILLER_56_898 VGND VPWR sky130_fd_sc_hd__decap_12
XFILLER_83_684 VGND VPWR sky130_fd_sc_hd__decap_12
XFILLER_70_312 VGND VPWR sky130_fd_sc_hd__decap_12
XFILLER_249_1389 VGND VPWR sky130_fd_sc_hd__decap_6
XANTENNA_mem_bottom_track_17.sc_dff_compact_0_.sky130_fd_sc_hd__dfrbp_1_CLK clkbuf_3_4_0_prog_clk/X
+ VGND VPWR sky130_fd_sc_hd__diode_2
XFILLER_43_537 VGND VPWR sky130_fd_sc_hd__decap_12
XFILLER_243_476 VGND VPWR sky130_fd_sc_hd__decap_12
XFILLER_203_318 VGND VPWR sky130_fd_sc_hd__decap_12
XFILLER_130_44 VGND VPWR sky130_fd_sc_hd__decap_12
XFILLER_208_1020 VGND VPWR sky130_fd_sc_hd__decap_12
XPHY_702 VGND VPWR sky130_fd_sc_hd__tapvpwrvgnd_1
XPHY_713 VGND VPWR sky130_fd_sc_hd__tapvpwrvgnd_1
XPHY_2002 VGND VPWR sky130_fd_sc_hd__tapvpwrvgnd_1
XFILLER_71_879 VGND VPWR sky130_fd_sc_hd__decap_12
XFILLER_224_690 VGND VPWR sky130_fd_sc_hd__decap_12
XANTENNA_mem_right_track_8.sc_dff_compact_3_.sky130_fd_sc_hd__dfrbp_1_D mem_right_track_8.sc_dff_compact_3_.sky130_fd_sc_hd__dfrbp_1/D
+ VGND VPWR sky130_fd_sc_hd__diode_2
XFILLER_24_751 VGND VPWR sky130_fd_sc_hd__decap_12
XPHY_2013 VGND VPWR sky130_fd_sc_hd__tapvpwrvgnd_1
XFILLER_90_15 VGND VPWR sky130_fd_sc_hd__decap_12
XPHY_724 VGND VPWR sky130_fd_sc_hd__tapvpwrvgnd_1
XFILLER_54_1215 VGND VPWR sky130_fd_sc_hd__decap_12
XPHY_2024 VGND VPWR sky130_fd_sc_hd__tapvpwrvgnd_1
XFILLER_196_520 VGND VPWR sky130_fd_sc_hd__decap_12
XPHY_735 VGND VPWR sky130_fd_sc_hd__tapvpwrvgnd_1
XPHY_2035 VGND VPWR sky130_fd_sc_hd__tapvpwrvgnd_1
XFILLER_145_1343 VGND VPWR sky130_fd_sc_hd__decap_12
XFILLER_169_745 VGND VPWR sky130_fd_sc_hd__decap_12
XPHY_1301 VGND VPWR sky130_fd_sc_hd__tapvpwrvgnd_1
XPHY_746 VGND VPWR sky130_fd_sc_hd__tapvpwrvgnd_1
XPHY_757 VGND VPWR sky130_fd_sc_hd__tapvpwrvgnd_1
XPHY_2046 VGND VPWR sky130_fd_sc_hd__tapvpwrvgnd_1
XPHY_1312 VGND VPWR sky130_fd_sc_hd__tapvpwrvgnd_1
XPHY_768 VGND VPWR sky130_fd_sc_hd__tapvpwrvgnd_1
XPHY_2057 VGND VPWR sky130_fd_sc_hd__tapvpwrvgnd_1
XPHY_1323 VGND VPWR sky130_fd_sc_hd__tapvpwrvgnd_1
XFILLER_19_1379 VGND VPWR sky130_fd_sc_hd__decap_12
XPHY_2068 VGND VPWR sky130_fd_sc_hd__tapvpwrvgnd_1
XPHY_1334 VGND VPWR sky130_fd_sc_hd__tapvpwrvgnd_1
XPHY_779 VGND VPWR sky130_fd_sc_hd__tapvpwrvgnd_1
XPHY_2079 VGND VPWR sky130_fd_sc_hd__tapvpwrvgnd_1
XFILLER_184_715 VGND VPWR sky130_fd_sc_hd__decap_12
XPHY_1345 VGND VPWR sky130_fd_sc_hd__tapvpwrvgnd_1
XFILLER_106_1349 VGND VPWR sky130_fd_sc_hd__decap_12
XPHY_1356 VGND VPWR sky130_fd_sc_hd__tapvpwrvgnd_1
XFILLER_135_3 VGND VPWR sky130_fd_sc_hd__decap_12
XFILLER_168_288 VGND VPWR sky130_fd_sc_hd__decap_12
XPHY_1367 VGND VPWR sky130_fd_sc_hd__tapvpwrvgnd_1
XPHY_1378 VGND VPWR sky130_fd_sc_hd__tapvpwrvgnd_1
XFILLER_165_940 VGND VPWR sky130_fd_sc_hd__decap_12
XPHY_1389 VGND VPWR sky130_fd_sc_hd__tapvpwrvgnd_1
XFILLER_23_86 VGND VPWR sky130_fd_sc_hd__decap_12
XFILLER_11_489 VGND VPWR sky130_fd_sc_hd__decap_12
XFILLER_139_86 VGND VPWR sky130_fd_sc_hd__decap_12
XFILLER_183_269 VGND VPWR sky130_fd_sc_hd__decap_12
XFILLER_178_1130 VGND VPWR sky130_fd_sc_hd__decap_12
XFILLER_87_1013 VGND VPWR sky130_fd_sc_hd__decap_12
XFILLER_136_141 VGND VPWR sky130_fd_sc_hd__decap_12
XFILLER_180_910 VGND VPWR sky130_fd_sc_hd__decap_12
XFILLER_164_483 VGND VPWR sky130_fd_sc_hd__decap_12
XFILLER_3_611 VGND VPWR sky130_fd_sc_hd__decap_12
XFILLER_48_1008 VGND VPWR sky130_fd_sc_hd__decap_12
XFILLER_139_1147 VGND VPWR sky130_fd_sc_hd__decap_12
XFILLER_152_678 VGND VPWR sky130_fd_sc_hd__decap_12
XFILLER_219_1160 VGND VPWR sky130_fd_sc_hd__decap_12
XFILLER_191_1330 VGND VPWR sky130_fd_sc_hd__decap_12
XFILLER_105_550 VGND VPWR sky130_fd_sc_hd__decap_12
XFILLER_2_154 VGND VPWR sky130_fd_sc_hd__decap_12
XFILLER_155_74 VGND VPWR sky130_fd_sc_hd__decap_12
XFILLER_215_1013 VGND VPWR sky130_fd_sc_hd__decap_12
XFILLER_65_1355 VGND VPWR sky130_fd_sc_hd__decap_12
XFILLER_61_1208 VGND VPWR sky130_fd_sc_hd__decap_12
XFILLER_78_434 VGND VPWR sky130_fd_sc_hd__decap_12
XFILLER_120_520 VGND VPWR sky130_fd_sc_hd__decap_12
XFILLER_152_1325 VGND VPWR sky130_fd_sc_hd__decap_12
XFILLER_2_198 VGND VPWR sky130_fd_sc_hd__decap_12
XFILLER_238_215 VGND VPWR sky130_fd_sc_hd__decap_12
XFILLER_19_501 VGND VPWR sky130_fd_sc_hd__decap_12
XFILLER_66_629 VGND VPWR sky130_fd_sc_hd__decap_12
XFILLER_93_415 VGND VPWR sky130_fd_sc_hd__decap_12
XFILLER_219_440 VGND VPWR sky130_fd_sc_hd__decap_12
XFILLER_171_51 VGND VPWR sky130_fd_sc_hd__decap_8
XFILLER_171_62 VGND VPWR sky130_fd_sc_hd__decap_12
XFILLER_234_410 VGND VPWR sky130_fd_sc_hd__fill_2
XFILLER_98_1142 VGND VPWR sky130_fd_sc_hd__decap_12
XFILLER_207_635 VGND VPWR sky130_fd_sc_hd__decap_12
XFILLER_150_1093 VGND VPWR sky130_fd_sc_hd__decap_12
XFILLER_185_1123 VGND VPWR sky130_fd_sc_hd__decap_12
XFILLER_235_977 VGND VPWR sky130_fd_sc_hd__decap_12
XFILLER_222_605 VGND VPWR sky130_fd_sc_hd__decap_12
XFILLER_111_1099 VGND VPWR sky130_fd_sc_hd__decap_12
XANTENNA_mem_left_track_9.sc_dff_compact_2_.sky130_fd_sc_hd__dfrbp_1_D mem_left_track_9.sc_dff_compact_1_.sky130_fd_sc_hd__dfrbp_1/Q
+ VGND VPWR sky130_fd_sc_hd__diode_2
XFILLER_203_830 VGND VPWR sky130_fd_sc_hd__decap_12
XFILLER_64_93 VGND VPWR sky130_fd_sc_hd__decap_12
XFILLER_61_367 VGND VPWR sky130_fd_sc_hd__decap_12
XFILLER_226_1142 VGND VPWR sky130_fd_sc_hd__decap_12
XPHY_3270 VGND VPWR sky130_fd_sc_hd__tapvpwrvgnd_1
XFILLER_221_159 VGND VPWR sky130_fd_sc_hd__decap_12
XFILLER_199_391 VGND VPWR sky130_fd_sc_hd__decap_12
XFILLER_72_1337 VGND VPWR sky130_fd_sc_hd__decap_12
XFILLER_42_581 VGND VPWR sky130_fd_sc_hd__decap_12
XPHY_3281 VGND VPWR sky130_fd_sc_hd__tapvpwrvgnd_1
XPHY_3292 VGND VPWR sky130_fd_sc_hd__tapvpwrvgnd_1
XFILLER_163_1465 VGND VPWR sky130_fd_sc_hd__decap_8
XFILLER_202_373 VGND VPWR sky130_fd_sc_hd__decap_12
XPHY_2580 VGND VPWR sky130_fd_sc_hd__tapvpwrvgnd_1
XFILLER_187_586 VGND VPWR sky130_fd_sc_hd__decap_12
XFILLER_31_1001 VGND VPWR sky130_fd_sc_hd__decap_12
XFILLER_30_776 VGND VPWR sky130_fd_sc_hd__decap_12
XPHY_2591 VGND VPWR sky130_fd_sc_hd__tapvpwrvgnd_1
XFILLER_147_428 VGND VPWR sky130_fd_sc_hd__decap_12
XPHY_1890 VGND VPWR sky130_fd_sc_hd__tapvpwrvgnd_1
XFILLER_128_642 VGND VPWR sky130_fd_sc_hd__decap_12