* NGSPICE file created from sb_1__1_.ext - technology: sky130A

* Black-box entry subcircuit for sky130_fd_sc_hd__decap_12 abstract view
.subckt sky130_fd_sc_hd__decap_12 VGND VPWR
.ends

* Black-box entry subcircuit for sky130_fd_sc_hd__fill_1 abstract view
.subckt sky130_fd_sc_hd__fill_1 VGND VPWR
.ends

* Black-box entry subcircuit for sky130_fd_sc_hd__fill_2 abstract view
.subckt sky130_fd_sc_hd__fill_2 VGND VPWR
.ends

* Black-box entry subcircuit for sky130_fd_sc_hd__decap_3 abstract view
.subckt sky130_fd_sc_hd__decap_3 VGND VPWR
.ends

* Black-box entry subcircuit for sky130_fd_sc_hd__dfrbp_1 abstract view
.subckt sky130_fd_sc_hd__dfrbp_1 D Q Q_N RESET_B CLK VGND VPWR
.ends

* Black-box entry subcircuit for sky130_fd_sc_hd__diode_2 abstract view
.subckt sky130_fd_sc_hd__diode_2 DIODE VGND VPWR
.ends

* Black-box entry subcircuit for sky130_fd_sc_hd__decap_8 abstract view
.subckt sky130_fd_sc_hd__decap_8 VGND VPWR
.ends

* Black-box entry subcircuit for sky130_fd_sc_hd__decap_4 abstract view
.subckt sky130_fd_sc_hd__decap_4 VGND VPWR
.ends

* Black-box entry subcircuit for sky130_fd_sc_hd__clkbuf_1 abstract view
.subckt sky130_fd_sc_hd__clkbuf_1 A X VGND VPWR
.ends

* Black-box entry subcircuit for sky130_fd_sc_hd__decap_6 abstract view
.subckt sky130_fd_sc_hd__decap_6 VGND VPWR
.ends

* Black-box entry subcircuit for sky130_fd_sc_hd__tapvpwrvgnd_1 abstract view
.subckt sky130_fd_sc_hd__tapvpwrvgnd_1 VGND VPWR
.ends

* Black-box entry subcircuit for sky130_fd_sc_hd__buf_2 abstract view
.subckt sky130_fd_sc_hd__buf_2 A X VGND VPWR
.ends

* Black-box entry subcircuit for sky130_fd_sc_hd__conb_1 abstract view
.subckt sky130_fd_sc_hd__conb_1 HI LO VGND VPWR
.ends

* Black-box entry subcircuit for sky130_fd_sc_hd__clkbuf_16 abstract view
.subckt sky130_fd_sc_hd__clkbuf_16 A X VGND VPWR
.ends

.subckt sb_1__1_ bottom_left_grid_pin_13_ bottom_right_grid_pin_11_ ccff_head ccff_tail
+ chanx_left_in[0] chanx_left_in[1] chanx_left_in[2] chanx_left_in[3] chanx_left_in[4]
+ chanx_left_in[5] chanx_left_in[6] chanx_left_in[7] chanx_left_in[8] chanx_left_out[0]
+ chanx_left_out[1] chanx_left_out[2] chanx_left_out[3] chanx_left_out[4] chanx_left_out[5]
+ chanx_left_out[6] chanx_left_out[7] chanx_left_out[8] chanx_right_in[0] chanx_right_in[1]
+ chanx_right_in[2] chanx_right_in[3] chanx_right_in[4] chanx_right_in[5] chanx_right_in[6]
+ chanx_right_in[7] chanx_right_in[8] chanx_right_out[0] chanx_right_out[1] chanx_right_out[2]
+ chanx_right_out[3] chanx_right_out[4] chanx_right_out[5] chanx_right_out[6] chanx_right_out[7]
+ chanx_right_out[8] chany_bottom_in[0] chany_bottom_in[1] chany_bottom_in[2] chany_bottom_in[3]
+ chany_bottom_in[4] chany_bottom_in[5] chany_bottom_in[6] chany_bottom_in[7] chany_bottom_in[8]
+ chany_bottom_out[0] chany_bottom_out[1] chany_bottom_out[2] chany_bottom_out[3]
+ chany_bottom_out[4] chany_bottom_out[5] chany_bottom_out[6] chany_bottom_out[7]
+ chany_bottom_out[8] chany_top_in[0] chany_top_in[1] chany_top_in[2] chany_top_in[3]
+ chany_top_in[4] chany_top_in[5] chany_top_in[6] chany_top_in[7] chany_top_in[8]
+ chany_top_out[0] chany_top_out[1] chany_top_out[2] chany_top_out[3] chany_top_out[4]
+ chany_top_out[5] chany_top_out[6] chany_top_out[7] chany_top_out[8] left_bottom_grid_pin_12_
+ left_top_grid_pin_10_ pReset prog_clk right_bottom_grid_pin_12_ right_top_grid_pin_10_
+ top_left_grid_pin_13_ top_right_grid_pin_11_ VPWR VGND
XFILLER_22_177 VGND VPWR sky130_fd_sc_hd__decap_12
XFILLER_26_30 VGND VPWR sky130_fd_sc_hd__fill_1
XFILLER_13_188 VGND VPWR sky130_fd_sc_hd__fill_1
XFILLER_13_166 VGND VPWR sky130_fd_sc_hd__fill_2
XFILLER_3_45 VGND VPWR sky130_fd_sc_hd__decap_3
XFILLER_3_78 VGND VPWR sky130_fd_sc_hd__fill_2
XFILLER_12_32 VGND VPWR sky130_fd_sc_hd__decap_12
XFILLER_10_125 VGND VPWR sky130_fd_sc_hd__fill_2
Xmem_bottom_track_1.sc_dff_compact_1_.sky130_fd_sc_hd__dfrbp_1 mem_bottom_track_1.sc_dff_compact_0_.sky130_fd_sc_hd__dfrbp_1/Q
+ mem_bottom_track_1.sc_dff_compact_1_.sky130_fd_sc_hd__dfrbp_1/Q mem_bottom_track_1.sc_dff_compact_1_.sky130_fd_sc_hd__dfrbp_1/Q_N
+ pReset clkbuf_3_2_0_prog_clk/X VGND VPWR sky130_fd_sc_hd__dfrbp_1
XANTENNA_mem_bottom_track_1.sc_dff_compact_5_.sky130_fd_sc_hd__dfrbp_1_D mem_bottom_track_1.sc_dff_compact_4_.sky130_fd_sc_hd__dfrbp_1/Q
+ VGND VPWR sky130_fd_sc_hd__diode_2
XFILLER_5_173 VGND VPWR sky130_fd_sc_hd__decap_8
XFILLER_5_184 VGND VPWR sky130_fd_sc_hd__decap_4
XFILLER_23_97 VGND VPWR sky130_fd_sc_hd__decap_4
XANTENNA_mem_bottom_track_17.sc_dff_compact_0_.sky130_fd_sc_hd__dfrbp_1_CLK clkbuf_3_1_0_prog_clk/X
+ VGND VPWR sky130_fd_sc_hd__diode_2
XANTENNA_mem_right_track_8.sc_dff_compact_3_.sky130_fd_sc_hd__dfrbp_1_D mem_right_track_8.sc_dff_compact_2_.sky130_fd_sc_hd__dfrbp_1/Q
+ VGND VPWR sky130_fd_sc_hd__diode_2
XANTENNA_mem_left_track_9.sc_dff_compact_2_.sky130_fd_sc_hd__dfrbp_1_D mem_left_track_9.sc_dff_compact_1_.sky130_fd_sc_hd__dfrbp_1/Q
+ VGND VPWR sky130_fd_sc_hd__diode_2
XFILLER_9_44 VGND VPWR sky130_fd_sc_hd__fill_2
XFILLER_9_33 VGND VPWR sky130_fd_sc_hd__decap_4
XFILLER_0_79 VGND VPWR sky130_fd_sc_hd__fill_2
XFILLER_0_46 VGND VPWR sky130_fd_sc_hd__decap_4
XANTENNA_mem_bottom_track_9.sc_dff_compact_4_.sky130_fd_sc_hd__dfrbp_1_CLK clkbuf_3_2_0_prog_clk/X
+ VGND VPWR sky130_fd_sc_hd__diode_2
Xclkbuf_3_4_0_prog_clk clkbuf_3_5_0_prog_clk/A clkbuf_3_4_0_prog_clk/X VGND VPWR sky130_fd_sc_hd__clkbuf_1
Xmem_right_track_0.sc_dff_compact_5_.sky130_fd_sc_hd__dfrbp_1 mem_right_track_0.sc_dff_compact_4_.sky130_fd_sc_hd__dfrbp_1/Q
+ mem_right_track_0.sc_dff_compact_5_.sky130_fd_sc_hd__dfrbp_1/Q mem_right_track_0.sc_dff_compact_5_.sky130_fd_sc_hd__dfrbp_1/Q_N
+ pReset clkbuf_3_6_0_prog_clk/X VGND VPWR sky130_fd_sc_hd__dfrbp_1
XANTENNA_clkbuf_2_1_0_prog_clk_A clkbuf_2_1_0_prog_clk/A VGND VPWR sky130_fd_sc_hd__diode_2
XFILLER_22_7 VGND VPWR sky130_fd_sc_hd__decap_3
Xmem_top_track_16.sc_dff_compact_0_.sky130_fd_sc_hd__dfrbp_1 mem_top_track_8.sc_dff_compact_7_.sky130_fd_sc_hd__dfrbp_1/Q
+ mem_top_track_16.sc_dff_compact_0_.sky130_fd_sc_hd__dfrbp_1/Q mem_top_track_16.sc_dff_compact_0_.sky130_fd_sc_hd__dfrbp_1/Q_N
+ pReset clkbuf_3_6_0_prog_clk/X VGND VPWR sky130_fd_sc_hd__dfrbp_1
XFILLER_18_64 VGND VPWR sky130_fd_sc_hd__fill_2
XANTENNA_mem_top_track_8.sc_dff_compact_7_.sky130_fd_sc_hd__dfrbp_1_D mem_top_track_8.sc_dff_compact_6_.sky130_fd_sc_hd__dfrbp_1/Q
+ VGND VPWR sky130_fd_sc_hd__diode_2
XFILLER_29_85 VGND VPWR sky130_fd_sc_hd__decap_12
XFILLER_29_41 VGND VPWR sky130_fd_sc_hd__fill_2
XFILLER_20_87 VGND VPWR sky130_fd_sc_hd__decap_4
XFILLER_20_76 VGND VPWR sky130_fd_sc_hd__fill_2
XFILLER_20_32 VGND VPWR sky130_fd_sc_hd__decap_12
XANTENNA_mem_top_track_16.sc_dff_compact_3_.sky130_fd_sc_hd__dfrbp_1_CLK clkbuf_3_1_0_prog_clk/X
+ VGND VPWR sky130_fd_sc_hd__diode_2
Xmem_right_track_16.sc_dff_compact_0_.sky130_fd_sc_hd__dfrbp_1 mem_right_track_8.sc_dff_compact_7_.sky130_fd_sc_hd__dfrbp_1/Q
+ mem_right_track_16.sc_dff_compact_1_.sky130_fd_sc_hd__dfrbp_1/D mem_right_track_16.sc_dff_compact_0_.sky130_fd_sc_hd__dfrbp_1/Q_N
+ pReset clkbuf_3_2_0_prog_clk/X VGND VPWR sky130_fd_sc_hd__dfrbp_1
XFILLER_13_3 VGND VPWR sky130_fd_sc_hd__fill_2
XFILLER_25_164 VGND VPWR sky130_fd_sc_hd__decap_12
Xmem_bottom_track_17.sc_dff_compact_2_.sky130_fd_sc_hd__dfrbp_1 mem_bottom_track_17.sc_dff_compact_1_.sky130_fd_sc_hd__dfrbp_1/Q
+ mem_bottom_track_17.sc_dff_compact_3_.sky130_fd_sc_hd__dfrbp_1/D mem_bottom_track_17.sc_dff_compact_2_.sky130_fd_sc_hd__dfrbp_1/Q_N
+ pReset clkbuf_3_1_0_prog_clk/X VGND VPWR sky130_fd_sc_hd__dfrbp_1
XFILLER_31_156 VGND VPWR sky130_fd_sc_hd__decap_12
XFILLER_31_75 VGND VPWR sky130_fd_sc_hd__decap_12
XFILLER_16_186 VGND VPWR sky130_fd_sc_hd__decap_3
XANTENNA_mem_left_track_17.sc_dff_compact_0_.sky130_fd_sc_hd__dfrbp_1_RESET_B pReset
+ VGND VPWR sky130_fd_sc_hd__diode_2
XFILLER_26_97 VGND VPWR sky130_fd_sc_hd__decap_3
XANTENNA_mem_left_track_9.sc_dff_compact_5_.sky130_fd_sc_hd__dfrbp_1_CLK clkbuf_3_5_0_prog_clk/X
+ VGND VPWR sky130_fd_sc_hd__diode_2
XFILLER_13_134 VGND VPWR sky130_fd_sc_hd__fill_1
XFILLER_13_123 VGND VPWR sky130_fd_sc_hd__fill_2
XANTENNA_mem_right_track_8.sc_dff_compact_6_.sky130_fd_sc_hd__dfrbp_1_D mem_right_track_8.sc_dff_compact_5_.sky130_fd_sc_hd__dfrbp_1/Q
+ VGND VPWR sky130_fd_sc_hd__diode_2
XANTENNA_mem_left_track_9.sc_dff_compact_5_.sky130_fd_sc_hd__dfrbp_1_D mem_left_track_9.sc_dff_compact_5_.sky130_fd_sc_hd__dfrbp_1/D
+ VGND VPWR sky130_fd_sc_hd__diode_2
XFILLER_12_88 VGND VPWR sky130_fd_sc_hd__fill_2
XFILLER_12_44 VGND VPWR sky130_fd_sc_hd__decap_3
XFILLER_12_11 VGND VPWR sky130_fd_sc_hd__fill_2
XFILLER_6_119 VGND VPWR sky130_fd_sc_hd__decap_12
XANTENNA_mem_bottom_track_17.sc_dff_compact_4_.sky130_fd_sc_hd__dfrbp_1_RESET_B pReset
+ VGND VPWR sky130_fd_sc_hd__diode_2
XFILLER_0_58 VGND VPWR sky130_fd_sc_hd__fill_2
XFILLER_0_36 VGND VPWR sky130_fd_sc_hd__fill_2
XFILLER_2_133 VGND VPWR sky130_fd_sc_hd__fill_1
XFILLER_2_177 VGND VPWR sky130_fd_sc_hd__decap_12
XANTENNA_mem_left_track_17.sc_dff_compact_2_.sky130_fd_sc_hd__dfrbp_1_D mem_left_track_17.sc_dff_compact_2_.sky130_fd_sc_hd__dfrbp_1/D
+ VGND VPWR sky130_fd_sc_hd__diode_2
XANTENNA_mem_right_track_0.sc_dff_compact_2_.sky130_fd_sc_hd__dfrbp_1_CLK clkbuf_3_3_0_prog_clk/X
+ VGND VPWR sky130_fd_sc_hd__diode_2
XFILLER_29_97 VGND VPWR sky130_fd_sc_hd__decap_12
XFILLER_20_44 VGND VPWR sky130_fd_sc_hd__decap_3
XFILLER_19_184 VGND VPWR sky130_fd_sc_hd__decap_4
XFILLER_25_176 VGND VPWR sky130_fd_sc_hd__decap_6
XFILLER_15_66 VGND VPWR sky130_fd_sc_hd__decap_12
XFILLER_31_168 VGND VPWR sky130_fd_sc_hd__decap_12
XFILLER_31_87 VGND VPWR sky130_fd_sc_hd__decap_6
XFILLER_31_32 VGND VPWR sky130_fd_sc_hd__decap_12
XPHY_160 VGND VPWR sky130_fd_sc_hd__tapvpwrvgnd_1
XFILLER_16_154 VGND VPWR sky130_fd_sc_hd__fill_1
XANTENNA_mem_right_track_0.sc_dff_compact_3_.sky130_fd_sc_hd__dfrbp_1_RESET_B pReset
+ VGND VPWR sky130_fd_sc_hd__diode_2
Xmem_left_track_9.sc_dff_compact_4_.sky130_fd_sc_hd__dfrbp_1 mem_left_track_9.sc_dff_compact_4_.sky130_fd_sc_hd__dfrbp_1/D
+ mem_left_track_9.sc_dff_compact_5_.sky130_fd_sc_hd__dfrbp_1/D mem_left_track_9.sc_dff_compact_4_.sky130_fd_sc_hd__dfrbp_1/Q_N
+ pReset clkbuf_3_5_0_prog_clk/X VGND VPWR sky130_fd_sc_hd__dfrbp_1
XFILLER_26_10 VGND VPWR sky130_fd_sc_hd__decap_6
XANTENNA_mem_bottom_track_9.sc_dff_compact_0_.sky130_fd_sc_hd__dfrbp_1_RESET_B pReset
+ VGND VPWR sky130_fd_sc_hd__diode_2
XANTENNA_mem_bottom_track_1.sc_dff_compact_6_.sky130_fd_sc_hd__dfrbp_1_RESET_B pReset
+ VGND VPWR sky130_fd_sc_hd__diode_2
XFILLER_3_58 VGND VPWR sky130_fd_sc_hd__decap_3
XANTENNA_mem_left_track_17.sc_dff_compact_5_.sky130_fd_sc_hd__dfrbp_1_D mem_left_track_17.sc_dff_compact_5_.sky130_fd_sc_hd__dfrbp_1/D
+ VGND VPWR sky130_fd_sc_hd__diode_2
XANTENNA_mem_top_track_8.sc_dff_compact_3_.sky130_fd_sc_hd__dfrbp_1_RESET_B pReset
+ VGND VPWR sky130_fd_sc_hd__diode_2
XFILLER_10_149 VGND VPWR sky130_fd_sc_hd__fill_2
XFILLER_5_6 VGND VPWR sky130_fd_sc_hd__decap_8
Xmem_right_track_8.sc_dff_compact_1_.sky130_fd_sc_hd__dfrbp_1 mem_right_track_8.sc_dff_compact_0_.sky130_fd_sc_hd__dfrbp_1/Q
+ mem_right_track_8.sc_dff_compact_1_.sky130_fd_sc_hd__dfrbp_1/Q mem_right_track_8.sc_dff_compact_1_.sky130_fd_sc_hd__dfrbp_1/Q_N
+ pReset clkbuf_3_3_0_prog_clk/X VGND VPWR sky130_fd_sc_hd__dfrbp_1
XFILLER_5_142 VGND VPWR sky130_fd_sc_hd__fill_2
XANTENNA_mem_left_track_9.sc_dff_compact_3_.sky130_fd_sc_hd__dfrbp_1_RESET_B pReset
+ VGND VPWR sky130_fd_sc_hd__diode_2
XFILLER_23_44 VGND VPWR sky130_fd_sc_hd__fill_2
XFILLER_2_123 VGND VPWR sky130_fd_sc_hd__fill_2
XFILLER_3_3 VGND VPWR sky130_fd_sc_hd__fill_2
XANTENNA_mem_right_track_16.sc_dff_compact_0_.sky130_fd_sc_hd__dfrbp_1_RESET_B pReset
+ VGND VPWR sky130_fd_sc_hd__diode_2
XFILLER_9_68 VGND VPWR sky130_fd_sc_hd__fill_1
XANTENNA_mem_right_track_8.sc_dff_compact_7_.sky130_fd_sc_hd__dfrbp_1_RESET_B pReset
+ VGND VPWR sky130_fd_sc_hd__diode_2
XFILLER_18_55 VGND VPWR sky130_fd_sc_hd__fill_2
XANTENNA_mem_top_track_0.sc_dff_compact_4_.sky130_fd_sc_hd__dfrbp_1_CLK clkbuf_3_6_0_prog_clk/X
+ VGND VPWR sky130_fd_sc_hd__diode_2
Xmem_left_track_1.sc_dff_compact_1_.sky130_fd_sc_hd__dfrbp_1 mem_left_track_1.sc_dff_compact_0_.sky130_fd_sc_hd__dfrbp_1/Q
+ mem_left_track_1.sc_dff_compact_2_.sky130_fd_sc_hd__dfrbp_1/D mem_left_track_1.sc_dff_compact_1_.sky130_fd_sc_hd__dfrbp_1/Q_N
+ pReset clkbuf_3_0_0_prog_clk/X VGND VPWR sky130_fd_sc_hd__dfrbp_1
Xmem_top_track_0.sc_dff_compact_5_.sky130_fd_sc_hd__dfrbp_1 mem_top_track_0.sc_dff_compact_4_.sky130_fd_sc_hd__dfrbp_1/Q
+ mem_top_track_0.sc_dff_compact_6_.sky130_fd_sc_hd__dfrbp_1/D mem_top_track_0.sc_dff_compact_5_.sky130_fd_sc_hd__dfrbp_1/Q_N
+ pReset clkbuf_3_7_0_prog_clk/X VGND VPWR sky130_fd_sc_hd__dfrbp_1
XFILLER_20_12 VGND VPWR sky130_fd_sc_hd__decap_3
XFILLER_20_23 VGND VPWR sky130_fd_sc_hd__decap_8
XANTENNA_clkbuf_1_0_0_prog_clk_A clkbuf_0_prog_clk/X VGND VPWR sky130_fd_sc_hd__diode_2
XFILLER_31_44 VGND VPWR sky130_fd_sc_hd__decap_12
XFILLER_25_188 VGND VPWR sky130_fd_sc_hd__fill_1
XFILLER_25_100 VGND VPWR sky130_fd_sc_hd__fill_2
XFILLER_15_78 VGND VPWR sky130_fd_sc_hd__decap_4
XFILLER_31_125 VGND VPWR sky130_fd_sc_hd__decap_12
XPHY_161 VGND VPWR sky130_fd_sc_hd__tapvpwrvgnd_1
XPHY_150 VGND VPWR sky130_fd_sc_hd__tapvpwrvgnd_1
Xclkbuf_2_1_0_prog_clk clkbuf_2_1_0_prog_clk/A clkbuf_3_3_0_prog_clk/A VGND VPWR sky130_fd_sc_hd__clkbuf_1
XFILLER_13_158 VGND VPWR sky130_fd_sc_hd__fill_2
XFILLER_13_114 VGND VPWR sky130_fd_sc_hd__fill_2
XFILLER_9_118 VGND VPWR sky130_fd_sc_hd__decap_4
XANTENNA_mem_right_track_16.sc_dff_compact_1_.sky130_fd_sc_hd__dfrbp_1_D mem_right_track_16.sc_dff_compact_1_.sky130_fd_sc_hd__dfrbp_1/D
+ VGND VPWR sky130_fd_sc_hd__diode_2
XANTENNA_mem_right_track_8.sc_dff_compact_2_.sky130_fd_sc_hd__dfrbp_1_CLK clkbuf_3_2_0_prog_clk/X
+ VGND VPWR sky130_fd_sc_hd__diode_2
XFILLER_4_91 VGND VPWR sky130_fd_sc_hd__fill_1
XANTENNA_mem_top_track_0.sc_dff_compact_1_.sky130_fd_sc_hd__dfrbp_1_D mem_top_track_0.sc_dff_compact_0_.sky130_fd_sc_hd__dfrbp_1/Q
+ VGND VPWR sky130_fd_sc_hd__diode_2
XFILLER_23_56 VGND VPWR sky130_fd_sc_hd__fill_2
XANTENNA__12__A chanx_right_in[6] VGND VPWR sky130_fd_sc_hd__diode_2
XFILLER_29_3 VGND VPWR sky130_fd_sc_hd__decap_4
XANTENNA_mem_left_track_17.sc_dff_compact_1_.sky130_fd_sc_hd__dfrbp_1_CLK clkbuf_3_4_0_prog_clk/X
+ VGND VPWR sky130_fd_sc_hd__diode_2
XANTENNA_mem_bottom_track_1.sc_dff_compact_3_.sky130_fd_sc_hd__dfrbp_1_CLK clkbuf_3_0_0_prog_clk/X
+ VGND VPWR sky130_fd_sc_hd__diode_2
XFILLER_18_23 VGND VPWR sky130_fd_sc_hd__decap_8
XFILLER_29_109 VGND VPWR sky130_fd_sc_hd__decap_12
X_29_ chany_top_in[0] chany_bottom_out[1] VGND VPWR sky130_fd_sc_hd__buf_2
XFILLER_29_33 VGND VPWR sky130_fd_sc_hd__fill_2
XFILLER_28_131 VGND VPWR sky130_fd_sc_hd__decap_12
Xclkbuf_3_3_0_prog_clk clkbuf_3_3_0_prog_clk/A clkbuf_3_3_0_prog_clk/X VGND VPWR sky130_fd_sc_hd__clkbuf_1
Xmem_bottom_track_9.sc_dff_compact_7_.sky130_fd_sc_hd__dfrbp_1 mem_bottom_track_9.sc_dff_compact_6_.sky130_fd_sc_hd__dfrbp_1/Q
+ mem_bottom_track_9.sc_dff_compact_7_.sky130_fd_sc_hd__dfrbp_1/Q mem_bottom_track_9.sc_dff_compact_7_.sky130_fd_sc_hd__dfrbp_1/Q_N
+ pReset clkbuf_3_0_0_prog_clk/X VGND VPWR sky130_fd_sc_hd__dfrbp_1
XANTENNA_mem_right_track_16.sc_dff_compact_4_.sky130_fd_sc_hd__dfrbp_1_D mem_right_track_16.sc_dff_compact_4_.sky130_fd_sc_hd__dfrbp_1/D
+ VGND VPWR sky130_fd_sc_hd__diode_2
XFILLER_6_15 VGND VPWR sky130_fd_sc_hd__fill_1
XFILLER_6_26 VGND VPWR sky130_fd_sc_hd__fill_1
XFILLER_20_7 VGND VPWR sky130_fd_sc_hd__decap_3
XANTENNA_mem_right_track_0.sc_dff_compact_0_.sky130_fd_sc_hd__dfrbp_1_D mem_top_track_16.sc_dff_compact_5_.sky130_fd_sc_hd__dfrbp_1/Q
+ VGND VPWR sky130_fd_sc_hd__diode_2
XANTENNA_mem_bottom_track_17.sc_dff_compact_0_.sky130_fd_sc_hd__dfrbp_1_D mem_bottom_track_9.sc_dff_compact_7_.sky130_fd_sc_hd__dfrbp_1/Q
+ VGND VPWR sky130_fd_sc_hd__diode_2
XFILLER_31_56 VGND VPWR sky130_fd_sc_hd__decap_6
XFILLER_25_156 VGND VPWR sky130_fd_sc_hd__fill_2
XFILLER_25_112 VGND VPWR sky130_fd_sc_hd__fill_2
XANTENNA__20__A chanx_left_in[4] VGND VPWR sky130_fd_sc_hd__diode_2
XFILLER_15_57 VGND VPWR sky130_fd_sc_hd__fill_2
XFILLER_31_137 VGND VPWR sky130_fd_sc_hd__decap_12
XPHY_162 VGND VPWR sky130_fd_sc_hd__tapvpwrvgnd_1
XPHY_151 VGND VPWR sky130_fd_sc_hd__tapvpwrvgnd_1
XPHY_140 VGND VPWR sky130_fd_sc_hd__tapvpwrvgnd_1
XFILLER_16_178 VGND VPWR sky130_fd_sc_hd__decap_8
XFILLER_16_145 VGND VPWR sky130_fd_sc_hd__decap_6
XFILLER_11_3 VGND VPWR sky130_fd_sc_hd__decap_3
XANTENNA_mem_top_track_0.sc_dff_compact_4_.sky130_fd_sc_hd__dfrbp_1_D mem_top_track_0.sc_dff_compact_3_.sky130_fd_sc_hd__dfrbp_1/Q
+ VGND VPWR sky130_fd_sc_hd__diode_2
XANTENNA_mem_left_track_1.sc_dff_compact_4_.sky130_fd_sc_hd__dfrbp_1_CLK clkbuf_3_1_0_prog_clk/X
+ VGND VPWR sky130_fd_sc_hd__diode_2
XANTENNA__15__A chanx_right_in[2] VGND VPWR sky130_fd_sc_hd__diode_2
XFILLER_10_129 VGND VPWR sky130_fd_sc_hd__decap_12
XANTENNA_mem_top_track_8.sc_dff_compact_4_.sky130_fd_sc_hd__dfrbp_1_CLK clkbuf_3_6_0_prog_clk/X
+ VGND VPWR sky130_fd_sc_hd__diode_2
XFILLER_5_188 VGND VPWR sky130_fd_sc_hd__fill_1
XFILLER_2_136 VGND VPWR sky130_fd_sc_hd__decap_12
Xmem_bottom_track_1.sc_dff_compact_4_.sky130_fd_sc_hd__dfrbp_1 mem_bottom_track_1.sc_dff_compact_4_.sky130_fd_sc_hd__dfrbp_1/D
+ mem_bottom_track_1.sc_dff_compact_4_.sky130_fd_sc_hd__dfrbp_1/Q mem_bottom_track_1.sc_dff_compact_4_.sky130_fd_sc_hd__dfrbp_1/Q_N
+ pReset clkbuf_3_0_0_prog_clk/X VGND VPWR sky130_fd_sc_hd__dfrbp_1
Xmem_top_track_8.sc_dff_compact_1_.sky130_fd_sc_hd__dfrbp_1 mem_top_track_8.sc_dff_compact_0_.sky130_fd_sc_hd__dfrbp_1/Q
+ mem_top_track_8.sc_dff_compact_2_.sky130_fd_sc_hd__dfrbp_1/D mem_top_track_8.sc_dff_compact_1_.sky130_fd_sc_hd__dfrbp_1/Q_N
+ pReset clkbuf_3_7_0_prog_clk/X VGND VPWR sky130_fd_sc_hd__dfrbp_1
XFILLER_9_48 VGND VPWR sky130_fd_sc_hd__decap_12
XFILLER_9_37 VGND VPWR sky130_fd_sc_hd__fill_1
XFILLER_18_68 VGND VPWR sky130_fd_sc_hd__fill_2
XFILLER_18_13 VGND VPWR sky130_fd_sc_hd__fill_2
XANTENNA_mem_bottom_track_17.sc_dff_compact_3_.sky130_fd_sc_hd__dfrbp_1_D mem_bottom_track_17.sc_dff_compact_3_.sky130_fd_sc_hd__dfrbp_1/D
+ VGND VPWR sky130_fd_sc_hd__diode_2
XANTENNA_mem_right_track_0.sc_dff_compact_3_.sky130_fd_sc_hd__dfrbp_1_D mem_right_track_0.sc_dff_compact_2_.sky130_fd_sc_hd__dfrbp_1/Q
+ VGND VPWR sky130_fd_sc_hd__diode_2
XANTENNA_mem_left_track_1.sc_dff_compact_2_.sky130_fd_sc_hd__dfrbp_1_D mem_left_track_1.sc_dff_compact_2_.sky130_fd_sc_hd__dfrbp_1/D
+ VGND VPWR sky130_fd_sc_hd__diode_2
XANTENNA__23__A chanx_left_in[0] VGND VPWR sky130_fd_sc_hd__diode_2
XANTENNA_mem_right_track_16.sc_dff_compact_3_.sky130_fd_sc_hd__dfrbp_1_CLK clkbuf_3_2_0_prog_clk/X
+ VGND VPWR sky130_fd_sc_hd__diode_2
XANTENNA_mem_left_track_17.sc_dff_compact_1_.sky130_fd_sc_hd__dfrbp_1_RESET_B pReset
+ VGND VPWR sky130_fd_sc_hd__diode_2
X_28_ chany_top_in[1] chany_bottom_out[2] VGND VPWR sky130_fd_sc_hd__buf_2
XFILLER_29_45 VGND VPWR sky130_fd_sc_hd__decap_12
XFILLER_28_143 VGND VPWR sky130_fd_sc_hd__decap_4
XANTENNA__18__A chanx_left_in[6] VGND VPWR sky130_fd_sc_hd__diode_2
Xmem_top_track_16.sc_dff_compact_3_.sky130_fd_sc_hd__dfrbp_1 mem_top_track_16.sc_dff_compact_2_.sky130_fd_sc_hd__dfrbp_1/Q
+ mem_top_track_16.sc_dff_compact_3_.sky130_fd_sc_hd__dfrbp_1/Q mem_top_track_16.sc_dff_compact_3_.sky130_fd_sc_hd__dfrbp_1/Q_N
+ pReset clkbuf_3_1_0_prog_clk/X VGND VPWR sky130_fd_sc_hd__dfrbp_1
XANTENNA_mem_top_track_0.sc_dff_compact_7_.sky130_fd_sc_hd__dfrbp_1_D mem_top_track_0.sc_dff_compact_6_.sky130_fd_sc_hd__dfrbp_1/Q
+ VGND VPWR sky130_fd_sc_hd__diode_2
Xmem_right_track_16.sc_dff_compact_3_.sky130_fd_sc_hd__dfrbp_1 mem_right_track_16.sc_dff_compact_3_.sky130_fd_sc_hd__dfrbp_1/D
+ mem_right_track_16.sc_dff_compact_4_.sky130_fd_sc_hd__dfrbp_1/D mem_right_track_16.sc_dff_compact_3_.sky130_fd_sc_hd__dfrbp_1/Q_N
+ pReset clkbuf_3_2_0_prog_clk/X VGND VPWR sky130_fd_sc_hd__dfrbp_1
XFILLER_25_146 VGND VPWR sky130_fd_sc_hd__decap_8
XFILLER_31_149 VGND VPWR sky130_fd_sc_hd__decap_6
XPHY_163 VGND VPWR sky130_fd_sc_hd__tapvpwrvgnd_1
XPHY_152 VGND VPWR sky130_fd_sc_hd__tapvpwrvgnd_1
XPHY_141 VGND VPWR sky130_fd_sc_hd__tapvpwrvgnd_1
XPHY_130 VGND VPWR sky130_fd_sc_hd__tapvpwrvgnd_1
Xmem_bottom_track_17.sc_dff_compact_5_.sky130_fd_sc_hd__dfrbp_1 mem_bottom_track_17.sc_dff_compact_5_.sky130_fd_sc_hd__dfrbp_1/D
+ mem_left_track_1.sc_dff_compact_0_.sky130_fd_sc_hd__dfrbp_1/D mem_bottom_track_17.sc_dff_compact_5_.sky130_fd_sc_hd__dfrbp_1/Q_N
+ pReset clkbuf_3_4_0_prog_clk/X VGND VPWR sky130_fd_sc_hd__dfrbp_1
XFILLER_22_105 VGND VPWR sky130_fd_sc_hd__fill_2
XANTENNA_mem_bottom_track_17.sc_dff_compact_5_.sky130_fd_sc_hd__dfrbp_1_RESET_B pReset
+ VGND VPWR sky130_fd_sc_hd__diode_2
XFILLER_7_70 VGND VPWR sky130_fd_sc_hd__decap_8
XFILLER_26_57 VGND VPWR sky130_fd_sc_hd__fill_2
XFILLER_26_35 VGND VPWR sky130_fd_sc_hd__fill_2
XFILLER_13_127 VGND VPWR sky130_fd_sc_hd__fill_2
XANTENNA__31__A chany_bottom_in[5] VGND VPWR sky130_fd_sc_hd__diode_2
XANTENNA_mem_bottom_track_9.sc_dff_compact_3_.sky130_fd_sc_hd__dfrbp_1_CLK clkbuf_3_5_0_prog_clk/X
+ VGND VPWR sky130_fd_sc_hd__diode_2
XANTENNA_mem_right_track_0.sc_dff_compact_6_.sky130_fd_sc_hd__dfrbp_1_D mem_right_track_0.sc_dff_compact_5_.sky130_fd_sc_hd__dfrbp_1/Q
+ VGND VPWR sky130_fd_sc_hd__diode_2
XFILLER_12_15 VGND VPWR sky130_fd_sc_hd__fill_2
XANTENNA__26__A chany_top_in[4] VGND VPWR sky130_fd_sc_hd__diode_2
XANTENNA_mem_top_track_0.sc_dff_compact_0_.sky130_fd_sc_hd__dfrbp_1_RESET_B pReset
+ VGND VPWR sky130_fd_sc_hd__diode_2
XANTENNA_mem_left_track_1.sc_dff_compact_5_.sky130_fd_sc_hd__dfrbp_1_D mem_left_track_1.sc_dff_compact_4_.sky130_fd_sc_hd__dfrbp_1/Q
+ VGND VPWR sky130_fd_sc_hd__diode_2
XFILLER_5_123 VGND VPWR sky130_fd_sc_hd__decap_12
XFILLER_23_36 VGND VPWR sky130_fd_sc_hd__decap_6
XANTENNA_mem_top_track_16.sc_dff_compact_2_.sky130_fd_sc_hd__dfrbp_1_CLK clkbuf_3_6_0_prog_clk/X
+ VGND VPWR sky130_fd_sc_hd__diode_2
XFILLER_4_93 VGND VPWR sky130_fd_sc_hd__fill_2
XFILLER_0_18 VGND VPWR sky130_fd_sc_hd__fill_2
XFILLER_2_148 VGND VPWR sky130_fd_sc_hd__decap_4
XANTENNA_mem_left_track_1.sc_dff_compact_0_.sky130_fd_sc_hd__dfrbp_1_RESET_B pReset
+ VGND VPWR sky130_fd_sc_hd__diode_2
XFILLER_1_170 VGND VPWR sky130_fd_sc_hd__decap_12
XANTENNA_mem_right_track_0.sc_dff_compact_4_.sky130_fd_sc_hd__dfrbp_1_RESET_B pReset
+ VGND VPWR sky130_fd_sc_hd__diode_2
XANTENNA_clkbuf_3_3_0_prog_clk_A clkbuf_3_3_0_prog_clk/A VGND VPWR sky130_fd_sc_hd__diode_2
X_27_ chany_top_in[2] chany_bottom_out[3] VGND VPWR sky130_fd_sc_hd__buf_2
XFILLER_29_57 VGND VPWR sky130_fd_sc_hd__fill_2
XANTENNA_mem_bottom_track_9.sc_dff_compact_1_.sky130_fd_sc_hd__dfrbp_1_RESET_B pReset
+ VGND VPWR sky130_fd_sc_hd__diode_2
XFILLER_28_177 VGND VPWR sky130_fd_sc_hd__decap_12
XANTENNA_mem_left_track_9.sc_dff_compact_4_.sky130_fd_sc_hd__dfrbp_1_CLK clkbuf_3_5_0_prog_clk/X
+ VGND VPWR sky130_fd_sc_hd__diode_2
Xmem_left_track_17.sc_dff_compact_1_.sky130_fd_sc_hd__dfrbp_1 mem_left_track_17.sc_dff_compact_0_.sky130_fd_sc_hd__dfrbp_1/Q
+ mem_left_track_17.sc_dff_compact_2_.sky130_fd_sc_hd__dfrbp_1/D mem_left_track_17.sc_dff_compact_1_.sky130_fd_sc_hd__dfrbp_1/Q_N
+ pReset clkbuf_3_4_0_prog_clk/X VGND VPWR sky130_fd_sc_hd__dfrbp_1
XFILLER_19_188 VGND VPWR sky130_fd_sc_hd__fill_1
XANTENNA__34__A chany_bottom_in[1] VGND VPWR sky130_fd_sc_hd__diode_2
XANTENNA_mem_bottom_track_1.sc_dff_compact_7_.sky130_fd_sc_hd__dfrbp_1_RESET_B pReset
+ VGND VPWR sky130_fd_sc_hd__diode_2
XANTENNA_mem_top_track_8.sc_dff_compact_4_.sky130_fd_sc_hd__dfrbp_1_RESET_B pReset
+ VGND VPWR sky130_fd_sc_hd__diode_2
XPHY_164 VGND VPWR sky130_fd_sc_hd__tapvpwrvgnd_1
XFILLER_31_106 VGND VPWR sky130_fd_sc_hd__decap_12
XPHY_153 VGND VPWR sky130_fd_sc_hd__tapvpwrvgnd_1
XPHY_142 VGND VPWR sky130_fd_sc_hd__tapvpwrvgnd_1
XPHY_131 VGND VPWR sky130_fd_sc_hd__tapvpwrvgnd_1
XPHY_120 VGND VPWR sky130_fd_sc_hd__tapvpwrvgnd_1
XANTENNA__29__A chany_top_in[0] VGND VPWR sky130_fd_sc_hd__diode_2
XANTENNA_mem_left_track_9.sc_dff_compact_4_.sky130_fd_sc_hd__dfrbp_1_RESET_B pReset
+ VGND VPWR sky130_fd_sc_hd__diode_2
XPHY_0 VGND VPWR sky130_fd_sc_hd__decap_3
Xmem_bottom_track_9.sc_dff_compact_0_.sky130_fd_sc_hd__dfrbp_1 mem_bottom_track_1.sc_dff_compact_7_.sky130_fd_sc_hd__dfrbp_1/Q
+ mem_bottom_track_9.sc_dff_compact_1_.sky130_fd_sc_hd__dfrbp_1/D mem_bottom_track_9.sc_dff_compact_0_.sky130_fd_sc_hd__dfrbp_1/Q_N
+ pReset clkbuf_3_0_0_prog_clk/X VGND VPWR sky130_fd_sc_hd__dfrbp_1
XANTENNA_mem_right_track_16.sc_dff_compact_1_.sky130_fd_sc_hd__dfrbp_1_RESET_B pReset
+ VGND VPWR sky130_fd_sc_hd__diode_2
Xmem_left_track_9.sc_dff_compact_7_.sky130_fd_sc_hd__dfrbp_1 mem_left_track_9.sc_dff_compact_6_.sky130_fd_sc_hd__dfrbp_1/Q
+ mem_left_track_9.sc_dff_compact_7_.sky130_fd_sc_hd__dfrbp_1/Q mem_left_track_9.sc_dff_compact_7_.sky130_fd_sc_hd__dfrbp_1/Q_N
+ pReset clkbuf_3_5_0_prog_clk/X VGND VPWR sky130_fd_sc_hd__dfrbp_1
XANTENNA_mem_right_track_0.sc_dff_compact_1_.sky130_fd_sc_hd__dfrbp_1_CLK clkbuf_3_3_0_prog_clk/X
+ VGND VPWR sky130_fd_sc_hd__diode_2
Xclkbuf_2_0_0_prog_clk clkbuf_2_1_0_prog_clk/A clkbuf_2_0_0_prog_clk/X VGND VPWR sky130_fd_sc_hd__clkbuf_1
XFILLER_5_102 VGND VPWR sky130_fd_sc_hd__fill_2
XFILLER_5_135 VGND VPWR sky130_fd_sc_hd__decap_4
XFILLER_5_146 VGND VPWR sky130_fd_sc_hd__fill_2
XFILLER_23_48 VGND VPWR sky130_fd_sc_hd__fill_2
Xmem_right_track_8.sc_dff_compact_4_.sky130_fd_sc_hd__dfrbp_1 mem_right_track_8.sc_dff_compact_3_.sky130_fd_sc_hd__dfrbp_1/Q
+ mem_right_track_8.sc_dff_compact_4_.sky130_fd_sc_hd__dfrbp_1/Q mem_right_track_8.sc_dff_compact_4_.sky130_fd_sc_hd__dfrbp_1/Q_N
+ pReset clkbuf_3_2_0_prog_clk/X VGND VPWR sky130_fd_sc_hd__dfrbp_1
XANTENNA_mem_top_track_16.sc_dff_compact_1_.sky130_fd_sc_hd__dfrbp_1_D mem_top_track_16.sc_dff_compact_0_.sky130_fd_sc_hd__dfrbp_1/Q
+ VGND VPWR sky130_fd_sc_hd__diode_2
XFILLER_2_127 VGND VPWR sky130_fd_sc_hd__decap_6
XFILLER_3_7 VGND VPWR sky130_fd_sc_hd__decap_3
XFILLER_1_182 VGND VPWR sky130_fd_sc_hd__fill_1
XFILLER_18_59 VGND VPWR sky130_fd_sc_hd__decap_3
XFILLER_27_3 VGND VPWR sky130_fd_sc_hd__decap_8
XFILLER_28_123 VGND VPWR sky130_fd_sc_hd__fill_2
XFILLER_20_49 VGND VPWR sky130_fd_sc_hd__fill_2
X_26_ chany_top_in[4] chany_bottom_out[5] VGND VPWR sky130_fd_sc_hd__buf_2
XFILLER_19_156 VGND VPWR sky130_fd_sc_hd__decap_12
XFILLER_19_101 VGND VPWR sky130_fd_sc_hd__fill_2
Xmem_left_track_1.sc_dff_compact_4_.sky130_fd_sc_hd__dfrbp_1 mem_left_track_1.sc_dff_compact_4_.sky130_fd_sc_hd__dfrbp_1/D
+ mem_left_track_1.sc_dff_compact_4_.sky130_fd_sc_hd__dfrbp_1/Q mem_left_track_1.sc_dff_compact_4_.sky130_fd_sc_hd__dfrbp_1/Q_N
+ pReset clkbuf_3_1_0_prog_clk/X VGND VPWR sky130_fd_sc_hd__dfrbp_1
XFILLER_10_93 VGND VPWR sky130_fd_sc_hd__fill_2
XFILLER_6_18 VGND VPWR sky130_fd_sc_hd__decap_8
XFILLER_6_29 VGND VPWR sky130_fd_sc_hd__fill_2
XFILLER_25_104 VGND VPWR sky130_fd_sc_hd__fill_2
XFILLER_15_27 VGND VPWR sky130_fd_sc_hd__decap_12
X_09_ _09_/HI chanx_right_out[8] VGND VPWR sky130_fd_sc_hd__conb_1
XPHY_165 VGND VPWR sky130_fd_sc_hd__tapvpwrvgnd_1
XFILLER_31_118 VGND VPWR sky130_fd_sc_hd__decap_6
XFILLER_31_15 VGND VPWR sky130_fd_sc_hd__decap_12
XPHY_154 VGND VPWR sky130_fd_sc_hd__tapvpwrvgnd_1
XPHY_143 VGND VPWR sky130_fd_sc_hd__tapvpwrvgnd_1
XPHY_132 VGND VPWR sky130_fd_sc_hd__tapvpwrvgnd_1
XPHY_121 VGND VPWR sky130_fd_sc_hd__tapvpwrvgnd_1
XPHY_110 VGND VPWR sky130_fd_sc_hd__tapvpwrvgnd_1
XFILLER_15_170 VGND VPWR sky130_fd_sc_hd__fill_2
Xmem_right_track_0.sc_dff_compact_1_.sky130_fd_sc_hd__dfrbp_1 mem_right_track_0.sc_dff_compact_0_.sky130_fd_sc_hd__dfrbp_1/Q
+ mem_right_track_0.sc_dff_compact_2_.sky130_fd_sc_hd__dfrbp_1/D mem_right_track_0.sc_dff_compact_1_.sky130_fd_sc_hd__dfrbp_1/Q_N
+ pReset clkbuf_3_3_0_prog_clk/X VGND VPWR sky130_fd_sc_hd__dfrbp_1
XPHY_1 VGND VPWR sky130_fd_sc_hd__decap_3
XFILLER_7_50 VGND VPWR sky130_fd_sc_hd__fill_2
XFILLER_21_184 VGND VPWR sky130_fd_sc_hd__decap_4
XFILLER_13_118 VGND VPWR sky130_fd_sc_hd__fill_2
XANTENNA_mem_top_track_16.sc_dff_compact_4_.sky130_fd_sc_hd__dfrbp_1_D mem_top_track_16.sc_dff_compact_3_.sky130_fd_sc_hd__dfrbp_1/Q
+ VGND VPWR sky130_fd_sc_hd__diode_2
XFILLER_7_83 VGND VPWR sky130_fd_sc_hd__fill_2
Xclkbuf_3_2_0_prog_clk clkbuf_3_3_0_prog_clk/A clkbuf_3_2_0_prog_clk/X VGND VPWR sky130_fd_sc_hd__clkbuf_1
XFILLER_12_151 VGND VPWR sky130_fd_sc_hd__fill_2
XFILLER_8_177 VGND VPWR sky130_fd_sc_hd__decap_12
XANTENNA_mem_bottom_track_9.sc_dff_compact_1_.sky130_fd_sc_hd__dfrbp_1_D mem_bottom_track_9.sc_dff_compact_1_.sky130_fd_sc_hd__dfrbp_1/D
+ VGND VPWR sky130_fd_sc_hd__diode_2
XANTENNA_mem_top_track_0.sc_dff_compact_3_.sky130_fd_sc_hd__dfrbp_1_CLK clkbuf_3_7_0_prog_clk/X
+ VGND VPWR sky130_fd_sc_hd__diode_2
XFILLER_29_7 VGND VPWR sky130_fd_sc_hd__fill_1
XFILLER_13_82 VGND VPWR sky130_fd_sc_hd__decap_3
XFILLER_24_81 VGND VPWR sky130_fd_sc_hd__decap_8
XFILLER_1_85 VGND VPWR sky130_fd_sc_hd__decap_6
X_25_ chany_top_in[5] chany_bottom_out[6] VGND VPWR sky130_fd_sc_hd__buf_2
XFILLER_29_37 VGND VPWR sky130_fd_sc_hd__fill_2
XFILLER_19_113 VGND VPWR sky130_fd_sc_hd__decap_4
XFILLER_10_72 VGND VPWR sky130_fd_sc_hd__decap_12
XFILLER_10_61 VGND VPWR sky130_fd_sc_hd__decap_8
XANTENNA_clkbuf_2_2_0_prog_clk_A clkbuf_2_3_0_prog_clk/A VGND VPWR sky130_fd_sc_hd__diode_2
XFILLER_19_168 VGND VPWR sky130_fd_sc_hd__decap_12
XFILLER_19_146 VGND VPWR sky130_fd_sc_hd__decap_8
XANTENNA_mem_right_track_8.sc_dff_compact_1_.sky130_fd_sc_hd__dfrbp_1_CLK clkbuf_3_3_0_prog_clk/X
+ VGND VPWR sky130_fd_sc_hd__diode_2
X_08_ _08_/HI chany_bottom_out[0] VGND VPWR sky130_fd_sc_hd__conb_1
XFILLER_31_27 VGND VPWR sky130_fd_sc_hd__decap_4
XFILLER_16_116 VGND VPWR sky130_fd_sc_hd__decap_12
XFILLER_15_39 VGND VPWR sky130_fd_sc_hd__decap_12
XPHY_100 VGND VPWR sky130_fd_sc_hd__tapvpwrvgnd_1
XPHY_155 VGND VPWR sky130_fd_sc_hd__tapvpwrvgnd_1
XPHY_144 VGND VPWR sky130_fd_sc_hd__tapvpwrvgnd_1
XPHY_133 VGND VPWR sky130_fd_sc_hd__tapvpwrvgnd_1
XPHY_122 VGND VPWR sky130_fd_sc_hd__tapvpwrvgnd_1
XFILLER_15_182 VGND VPWR sky130_fd_sc_hd__fill_1
XPHY_111 VGND VPWR sky130_fd_sc_hd__tapvpwrvgnd_1
XANTENNA_mem_bottom_track_9.sc_dff_compact_4_.sky130_fd_sc_hd__dfrbp_1_D mem_bottom_track_9.sc_dff_compact_3_.sky130_fd_sc_hd__dfrbp_1/Q
+ VGND VPWR sky130_fd_sc_hd__diode_2