* NGSPICE file created from spm.ext - technology: sky130A

* Black-box entry subcircuit for sky130_fd_sc_hd__fill_2 abstract view
.subckt sky130_fd_sc_hd__fill_2 VGND VPWR
.ends

* Black-box entry subcircuit for sky130_fd_sc_hd__diode_2 abstract view
.subckt sky130_fd_sc_hd__diode_2 DIODE VGND VPWR
.ends

* Black-box entry subcircuit for sky130_fd_sc_hd__and2_4 abstract view
.subckt sky130_fd_sc_hd__and2_4 A B X VGND VPWR
.ends

* Black-box entry subcircuit for sky130_fd_sc_hd__buf_1 abstract view
.subckt sky130_fd_sc_hd__buf_1 A X VGND VPWR
.ends

* Black-box entry subcircuit for sky130_fd_sc_hd__fill_1 abstract view
.subckt sky130_fd_sc_hd__fill_1 VGND VPWR
.ends

* Black-box entry subcircuit for sky130_fd_sc_hd__decap_3 abstract view
.subckt sky130_fd_sc_hd__decap_3 VGND VPWR
.ends

* Black-box entry subcircuit for sky130_fd_sc_hd__decap_6 abstract view
.subckt sky130_fd_sc_hd__decap_6 VGND VPWR
.ends

* Black-box entry subcircuit for sky130_fd_sc_hd__clkbuf_1 abstract view
.subckt sky130_fd_sc_hd__clkbuf_1 A X VGND VPWR
.ends

* Black-box entry subcircuit for sky130_fd_sc_hd__dfrtp_4 abstract view
.subckt sky130_fd_sc_hd__dfrtp_4 D Q RESET_B CLK VGND VPWR
.ends

* Black-box entry subcircuit for sky130_fd_sc_hd__decap_4 abstract view
.subckt sky130_fd_sc_hd__decap_4 VGND VPWR
.ends

* Black-box entry subcircuit for sky130_fd_sc_hd__inv_8 abstract view
.subckt sky130_fd_sc_hd__inv_8 A Y VGND VPWR
.ends

* Black-box entry subcircuit for sky130_fd_sc_hd__xor2_4 abstract view
.subckt sky130_fd_sc_hd__xor2_4 A B X VGND VPWR
.ends

* Black-box entry subcircuit for sky130_fd_sc_hd__tapvpwrvgnd_1 abstract view
.subckt sky130_fd_sc_hd__tapvpwrvgnd_1 VGND VPWR
.ends

* Black-box entry subcircuit for sky130_fd_sc_hd__decap_12 abstract view
.subckt sky130_fd_sc_hd__decap_12 VGND VPWR
.ends

* Black-box entry subcircuit for sky130_fd_sc_hd__a2bb2o_4 abstract view
.subckt sky130_fd_sc_hd__a2bb2o_4 A1_N A2_N B1 B2 X VGND VPWR
.ends

* Black-box entry subcircuit for sky130_fd_sc_hd__o22a_4 abstract view
.subckt sky130_fd_sc_hd__o22a_4 A1 A2 B1 B2 X VGND VPWR
.ends

* Black-box entry subcircuit for sky130_fd_sc_hd__decap_8 abstract view
.subckt sky130_fd_sc_hd__decap_8 VGND VPWR
.ends

* Black-box entry subcircuit for sky130_fd_sc_hd__clkbuf_16 abstract view
.subckt sky130_fd_sc_hd__clkbuf_16 A X VGND VPWR
.ends

* Black-box entry subcircuit for sky130_fd_sc_hd__a21boi_4 abstract view
.subckt sky130_fd_sc_hd__a21boi_4 A1 A2 B1_N Y VGND VPWR
.ends

* Black-box entry subcircuit for sky130_fd_sc_hd__or2_4 abstract view
.subckt sky130_fd_sc_hd__or2_4 A B X VGND VPWR
.ends

.subckt spm clk p rst x[0] x[10] x[11] x[12] x[13] x[14] x[15] x[16] x[17] x[18] x[19]
+ x[1] x[20] x[21] x[22] x[23] x[24] x[25] x[26] x[27] x[28] x[29] x[2] x[30] x[31]
+ x[3] x[4] x[5] x[6] x[7] x[8] x[9] y VPWR VGND
XFILLER_39_211 VGND VPWR sky130_fd_sc_hd__fill_2
XANTENNA__666__D _666_/D VGND VPWR sky130_fd_sc_hd__diode_2
XFILLER_22_144 VGND VPWR sky130_fd_sc_hd__fill_2
XFILLER_22_133 VGND VPWR sky130_fd_sc_hd__fill_2
XANTENNA__510__A1 _506_/Y VGND VPWR sky130_fd_sc_hd__diode_2
XANTENNA__510__B2 _507_/A VGND VPWR sky130_fd_sc_hd__diode_2
X_501_ _508_/A x[8] _502_/A VGND VPWR sky130_fd_sc_hd__and2_4
XFILLER_26_41 VGND VPWR sky130_fd_sc_hd__fill_2
X_432_ _428_/X _432_/X VGND VPWR sky130_fd_sc_hd__buf_1
XFILLER_13_111 VGND VPWR sky130_fd_sc_hd__fill_2
XFILLER_42_40 VGND VPWR sky130_fd_sc_hd__fill_1
X_363_ _363_/A _363_/X VGND VPWR sky130_fd_sc_hd__buf_1
XANTENNA__568__A1 _564_/Y VGND VPWR sky130_fd_sc_hd__diode_2
XANTENNA__568__B2 _565_/A VGND VPWR sky130_fd_sc_hd__diode_2
XANTENNA__670__RESET_B _401_/X VGND VPWR sky130_fd_sc_hd__diode_2
XFILLER_27_236 VGND VPWR sky130_fd_sc_hd__fill_2
XFILLER_12_32 VGND VPWR sky130_fd_sc_hd__fill_2
XFILLER_12_54 VGND VPWR sky130_fd_sc_hd__fill_2
XANTENNA__612__A2_N _608_/Y VGND VPWR sky130_fd_sc_hd__diode_2
XFILLER_37_62 VGND VPWR sky130_fd_sc_hd__decap_3
XANTENNA__627__A2_N _622_/Y VGND VPWR sky130_fd_sc_hd__diode_2
X_415_ _414_/A _415_/X VGND VPWR sky130_fd_sc_hd__buf_1
X_346_ _624_/A x[29] _347_/A VGND VPWR sky130_fd_sc_hd__and2_4
XANTENNA__656__CLK _659_/CLK VGND VPWR sky130_fd_sc_hd__diode_2
XFILLER_5_140 VGND VPWR sky130_fd_sc_hd__decap_6
XFILLER_5_173 VGND VPWR sky130_fd_sc_hd__fill_2
XFILLER_5_184 VGND VPWR sky130_fd_sc_hd__fill_2
XANTENNA__679__CLK _695_/CLK VGND VPWR sky130_fd_sc_hd__diode_2
XFILLER_2_165 VGND VPWR sky130_fd_sc_hd__fill_2
XFILLER_2_154 VGND VPWR sky130_fd_sc_hd__fill_2
XFILLER_2_143 VGND VPWR sky130_fd_sc_hd__decap_6
XFILLER_2_132 VGND VPWR sky130_fd_sc_hd__fill_2
XANTENNA__468__B1 _466_/X VGND VPWR sky130_fd_sc_hd__diode_2
XANTENNA__640__B1 _697_/Q VGND VPWR sky130_fd_sc_hd__diode_2
XANTENNA__504__A2_N _500_/Y VGND VPWR sky130_fd_sc_hd__diode_2
XFILLER_9_33 VGND VPWR sky130_fd_sc_hd__fill_2
XFILLER_9_44 VGND VPWR sky130_fd_sc_hd__fill_2
Xclkbuf_3_1_0_clk clkbuf_2_0_0_clk/X _670_/CLK VGND VPWR sky130_fd_sc_hd__clkbuf_1
XANTENNA__519__A2_N _514_/Y VGND VPWR sky130_fd_sc_hd__diode_2
XANTENNA__674__D _556_/X VGND VPWR sky130_fd_sc_hd__diode_2
XANTENNA__702__RESET_B _361_/X VGND VPWR sky130_fd_sc_hd__diode_2
X_680_ _680_/D _565_/A _389_/X _695_/CLK VGND VPWR sky130_fd_sc_hd__dfrtp_4
XFILLER_18_64 VGND VPWR sky130_fd_sc_hd__fill_2
XFILLER_18_86 VGND VPWR sky130_fd_sc_hd__fill_2
XFILLER_11_231 VGND VPWR sky130_fd_sc_hd__fill_2
XANTENNA__490__A2_N _486_/Y VGND VPWR sky130_fd_sc_hd__diode_2
XANTENNA__402__A _398_/A VGND VPWR sky130_fd_sc_hd__diode_2
XANTENNA__669__D _669_/D VGND VPWR sky130_fd_sc_hd__diode_2
XANTENNA__604__B1 _600_/A VGND VPWR sky130_fd_sc_hd__diode_2
XFILLER_29_128 VGND VPWR sky130_fd_sc_hd__fill_2
XFILLER_29_117 VGND VPWR sky130_fd_sc_hd__decap_4
XFILLER_37_194 VGND VPWR sky130_fd_sc_hd__decap_4
XANTENNA__598__A1_N _593_/Y VGND VPWR sky130_fd_sc_hd__diode_2
XANTENNA__583__A1_N _578_/Y VGND VPWR sky130_fd_sc_hd__diode_2
XFILLER_20_32 VGND VPWR sky130_fd_sc_hd__fill_2
XFILLER_20_43 VGND VPWR sky130_fd_sc_hd__decap_3
XFILLER_35_109 VGND VPWR sky130_fd_sc_hd__fill_2
X_594_ _688_/Q _594_/Y VGND VPWR sky130_fd_sc_hd__inv_8
X_663_ _663_/D _663_/Q _411_/X _663_/CLK VGND VPWR sky130_fd_sc_hd__dfrtp_4
XFILLER_6_23 VGND VPWR sky130_fd_sc_hd__fill_2
XFILLER_6_78 VGND VPWR sky130_fd_sc_hd__fill_2
XANTENNA__695__RESET_B _370_/X VGND VPWR sky130_fd_sc_hd__diode_2
XFILLER_13_3 VGND VPWR sky130_fd_sc_hd__fill_2
XFILLER_34_142 VGND VPWR sky130_fd_sc_hd__decap_4
XFILLER_1_219 VGND VPWR sky130_fd_sc_hd__decap_4
XFILLER_1_208 VGND VPWR sky130_fd_sc_hd__fill_2
XANTENNA__335__A2_N _637_/Y VGND VPWR sky130_fd_sc_hd__diode_2
XFILLER_25_120 VGND VPWR sky130_fd_sc_hd__fill_2
XFILLER_17_109 VGND VPWR sky130_fd_sc_hd__fill_2
XFILLER_31_53 VGND VPWR sky130_fd_sc_hd__fill_2
XFILLER_31_42 VGND VPWR sky130_fd_sc_hd__decap_4
XFILLER_25_197 VGND VPWR sky130_fd_sc_hd__fill_2
XFILLER_15_54 VGND VPWR sky130_fd_sc_hd__fill_2
XANTENNA__475__A1_N _470_/Y VGND VPWR sky130_fd_sc_hd__diode_2
XFILLER_31_134 VGND VPWR sky130_fd_sc_hd__decap_6
XFILLER_31_123 VGND VPWR sky130_fd_sc_hd__fill_2
XFILLER_31_101 VGND VPWR sky130_fd_sc_hd__fill_2
X_646_ _455_/X _438_/A _431_/X _663_/CLK VGND VPWR sky130_fd_sc_hd__dfrtp_4
X_577_ _577_/A _575_/X _680_/D VGND VPWR sky130_fd_sc_hd__xor2_4
XPHY_170 VGND VPWR sky130_fd_sc_hd__tapvpwrvgnd_1
XPHY_192 VGND VPWR sky130_fd_sc_hd__tapvpwrvgnd_1
XPHY_181 VGND VPWR sky130_fd_sc_hd__tapvpwrvgnd_1
XFILLER_39_245 VGND VPWR sky130_fd_sc_hd__fill_2
XFILLER_22_112 VGND VPWR sky130_fd_sc_hd__fill_1
XANTENNA__682__D _584_/X VGND VPWR sky130_fd_sc_hd__diode_2
XANTENNA__510__A2 _507_/Y VGND VPWR sky130_fd_sc_hd__diode_2
X_500_ _500_/A _500_/Y VGND VPWR sky130_fd_sc_hd__inv_8
XANTENNA__500__A _500_/A VGND VPWR sky130_fd_sc_hd__diode_2
XFILLER_26_75 VGND VPWR sky130_fd_sc_hd__fill_2
X_431_ _428_/X _431_/X VGND VPWR sky130_fd_sc_hd__buf_1
X_362_ _363_/A _362_/X VGND VPWR sky130_fd_sc_hd__buf_1
XFILLER_13_123 VGND VPWR sky130_fd_sc_hd__fill_2
XFILLER_13_134 VGND VPWR sky130_fd_sc_hd__fill_2
XFILLER_42_63 VGND VPWR sky130_fd_sc_hd__decap_4
XFILLER_42_52 VGND VPWR sky130_fd_sc_hd__fill_2
XFILLER_3_24 VGND VPWR sky130_fd_sc_hd__fill_2
XANTENNA__410__A _422_/A VGND VPWR sky130_fd_sc_hd__diode_2
XFILLER_36_215 VGND VPWR sky130_fd_sc_hd__decap_4
XFILLER_36_204 VGND VPWR sky130_fd_sc_hd__fill_2
X_629_ _629_/A _629_/Y VGND VPWR sky130_fd_sc_hd__inv_8
XANTENNA__568__A2 _565_/Y VGND VPWR sky130_fd_sc_hd__diode_2
XANTENNA__677__D _677_/D VGND VPWR sky130_fd_sc_hd__diode_2
XFILLER_42_218 VGND VPWR sky130_fd_sc_hd__fill_2
XFILLER_42_207 VGND VPWR sky130_fd_sc_hd__fill_2
XFILLER_6_108 VGND VPWR sky130_fd_sc_hd__fill_2
XFILLER_10_115 VGND VPWR sky130_fd_sc_hd__fill_2
XFILLER_10_148 VGND VPWR sky130_fd_sc_hd__decap_4
XFILLER_10_159 VGND VPWR sky130_fd_sc_hd__fill_2
XFILLER_37_74 VGND VPWR sky130_fd_sc_hd__fill_2
XFILLER_18_215 VGND VPWR sky130_fd_sc_hd__decap_3
X_414_ _414_/A _414_/X VGND VPWR sky130_fd_sc_hd__buf_1
X_345_ _704_/Q _345_/Y VGND VPWR sky130_fd_sc_hd__inv_8
XANTENNA__405__A _409_/A VGND VPWR sky130_fd_sc_hd__diode_2
XFILLER_23_87 VGND VPWR sky130_fd_sc_hd__fill_2
XANTENNA__468__B2 _467_/X VGND VPWR sky130_fd_sc_hd__diode_2
XFILLER_0_14 VGND VPWR sky130_fd_sc_hd__decap_12
XANTENNA__640__B2 _700_/Q VGND VPWR sky130_fd_sc_hd__diode_2
XANTENNA__640__A1 _636_/Y VGND VPWR sky130_fd_sc_hd__diode_2
XANTENNA__649__RESET_B _427_/X VGND VPWR sky130_fd_sc_hd__diode_2
XFILLER_9_56 VGND VPWR sky130_fd_sc_hd__fill_1
XFILLER_9_67 VGND VPWR sky130_fd_sc_hd__fill_2
XFILLER_9_89 VGND VPWR sky130_fd_sc_hd__fill_2
XANTENNA__690__D _613_/X VGND VPWR sky130_fd_sc_hd__diode_2
XANTENNA__646__CLK _663_/CLK VGND VPWR sky130_fd_sc_hd__diode_2
XFILLER_18_32 VGND VPWR sky130_fd_sc_hd__fill_2
XFILLER_34_86 VGND VPWR sky130_fd_sc_hd__fill_2
XFILLER_7_225 VGND VPWR sky130_fd_sc_hd__fill_2
XFILLER_7_236 VGND VPWR sky130_fd_sc_hd__fill_2
XFILLER_22_8 VGND VPWR sky130_fd_sc_hd__fill_2
XFILLER_37_184 VGND VPWR sky130_fd_sc_hd__decap_3
XANTENNA__604__B2 _690_/Q VGND VPWR sky130_fd_sc_hd__diode_2
XANTENNA__604__A1 _600_/Y VGND VPWR sky130_fd_sc_hd__diode_2
XANTENNA__685__D _598_/X VGND VPWR sky130_fd_sc_hd__diode_2
XANTENNA__669__CLK _698_/CLK VGND VPWR sky130_fd_sc_hd__diode_2
XANTENNA__540__B1 _541_/A VGND VPWR sky130_fd_sc_hd__diode_2
XFILLER_20_77 VGND VPWR sky130_fd_sc_hd__decap_4
XFILLER_20_88 VGND VPWR sky130_fd_sc_hd__decap_4
X_662_ _512_/X _500_/A _412_/X _673_/CLK VGND VPWR sky130_fd_sc_hd__dfrtp_4
XFILLER_28_151 VGND VPWR sky130_fd_sc_hd__fill_2
X_593_ _685_/Q _593_/Y VGND VPWR sky130_fd_sc_hd__inv_8
Xclkbuf_3_0_0_clk clkbuf_2_0_0_clk/X _663_/CLK VGND VPWR sky130_fd_sc_hd__clkbuf_1
XANTENNA__413__A _414_/A VGND VPWR sky130_fd_sc_hd__diode_2
XFILLER_34_132 VGND VPWR sky130_fd_sc_hd__decap_4
XANTENNA__598__B1 _596_/X VGND VPWR sky130_fd_sc_hd__diode_2
XANTENNA__664__RESET_B _409_/X VGND VPWR sky130_fd_sc_hd__diode_2
XFILLER_19_162 VGND VPWR sky130_fd_sc_hd__fill_2
XFILLER_19_184 VGND VPWR sky130_fd_sc_hd__fill_2
XFILLER_34_187 VGND VPWR sky130_fd_sc_hd__fill_2
XFILLER_34_154 VGND VPWR sky130_fd_sc_hd__fill_2
XFILLER_25_165 VGND VPWR sky130_fd_sc_hd__fill_2
XFILLER_25_132 VGND VPWR sky130_fd_sc_hd__fill_2
XFILLER_31_76 VGND VPWR sky130_fd_sc_hd__fill_2
XFILLER_0_231 VGND VPWR sky130_fd_sc_hd__fill_2
X_645_ _645_/D _645_/Q _432_/X _663_/CLK VGND VPWR sky130_fd_sc_hd__dfrtp_4
XFILLER_31_168 VGND VPWR sky130_fd_sc_hd__fill_2
XFILLER_31_157 VGND VPWR sky130_fd_sc_hd__fill_2
XFILLER_31_113 VGND VPWR sky130_fd_sc_hd__fill_2
XPHY_193 VGND VPWR sky130_fd_sc_hd__tapvpwrvgnd_1
XPHY_182 VGND VPWR sky130_fd_sc_hd__tapvpwrvgnd_1
XANTENNA__408__A _409_/A VGND VPWR sky130_fd_sc_hd__diode_2
X_576_ _571_/Y _572_/Y _577_/A _575_/X _679_/D VGND VPWR sky130_fd_sc_hd__a2bb2o_4
XFILLER_16_143 VGND VPWR sky130_fd_sc_hd__fill_2
XFILLER_16_154 VGND VPWR sky130_fd_sc_hd__fill_2
XPHY_160 VGND VPWR sky130_fd_sc_hd__tapvpwrvgnd_1
XPHY_171 VGND VPWR sky130_fd_sc_hd__tapvpwrvgnd_1
XANTENNA__504__B1 _502_/X VGND VPWR sky130_fd_sc_hd__diode_2
XFILLER_39_202 VGND VPWR sky130_fd_sc_hd__decap_3
XFILLER_22_102 VGND VPWR sky130_fd_sc_hd__decap_4
XFILLER_26_32 VGND VPWR sky130_fd_sc_hd__decap_6
XFILLER_26_21 VGND VPWR sky130_fd_sc_hd__fill_2
XFILLER_26_87 VGND VPWR sky130_fd_sc_hd__fill_1
X_361_ _363_/A _361_/X VGND VPWR sky130_fd_sc_hd__buf_1
XFILLER_9_128 VGND VPWR sky130_fd_sc_hd__fill_2
X_430_ _428_/X _430_/X VGND VPWR sky130_fd_sc_hd__buf_1
XFILLER_36_238 VGND VPWR sky130_fd_sc_hd__decap_12
X_628_ _628_/A _628_/B _628_/X VGND VPWR sky130_fd_sc_hd__xor2_4
X_559_ _559_/A x[16] _559_/X VGND VPWR sky130_fd_sc_hd__and2_4
XFILLER_8_172 VGND VPWR sky130_fd_sc_hd__fill_2
XFILLER_12_190 VGND VPWR sky130_fd_sc_hd__fill_2
XANTENNA__601__A _690_/Q VGND VPWR sky130_fd_sc_hd__diode_2
XANTENNA__349__A2_N _345_/Y VGND VPWR sky130_fd_sc_hd__diode_2
XFILLER_27_249 VGND VPWR sky130_fd_sc_hd__decap_4
XFILLER_27_205 VGND VPWR sky130_fd_sc_hd__fill_2
XANTENNA__693__D _693_/D VGND VPWR sky130_fd_sc_hd__diode_2
XFILLER_12_23 VGND VPWR sky130_fd_sc_hd__fill_2
XFILLER_12_67 VGND VPWR sky130_fd_sc_hd__decap_4
XFILLER_37_53 VGND VPWR sky130_fd_sc_hd__decap_4
X_413_ _414_/A _413_/X VGND VPWR sky130_fd_sc_hd__buf_1
XFILLER_18_238 VGND VPWR sky130_fd_sc_hd__decap_12
XFILLER_41_241 VGND VPWR sky130_fd_sc_hd__decap_3
X_344_ _701_/Q _344_/Y VGND VPWR sky130_fd_sc_hd__inv_8
XANTENNA__421__A _420_/A VGND VPWR sky130_fd_sc_hd__diode_2
XFILLER_5_153 VGND VPWR sky130_fd_sc_hd__fill_2
XFILLER_5_197 VGND VPWR sky130_fd_sc_hd__decap_4
XANTENNA__688__D _606_/X VGND VPWR sky130_fd_sc_hd__diode_2
XFILLER_15_208 VGND VPWR sky130_fd_sc_hd__fill_2
XANTENNA__506__A _661_/Q VGND VPWR sky130_fd_sc_hd__diode_2
XFILLER_23_44 VGND VPWR sky130_fd_sc_hd__fill_2
XFILLER_23_33 VGND VPWR sky130_fd_sc_hd__fill_2
XFILLER_3_3 VGND VPWR sky130_fd_sc_hd__fill_2
XFILLER_2_101 VGND VPWR sky130_fd_sc_hd__fill_1
XFILLER_0_26 VGND VPWR sky130_fd_sc_hd__decap_4
XANTENNA__689__RESET_B _378_/X VGND VPWR sky130_fd_sc_hd__diode_2
XANTENNA__640__A2 _637_/Y VGND VPWR sky130_fd_sc_hd__diode_2
XANTENNA__416__A _422_/A VGND VPWR sky130_fd_sc_hd__diode_2
XFILLER_36_3 VGND VPWR sky130_fd_sc_hd__decap_4
XFILLER_34_43 VGND VPWR sky130_fd_sc_hd__decap_3
XFILLER_34_32 VGND VPWR sky130_fd_sc_hd__decap_4
XFILLER_29_108 VGND VPWR sky130_fd_sc_hd__fill_2
XANTENNA__604__A2 _601_/Y VGND VPWR sky130_fd_sc_hd__diode_2
XFILLER_4_207 VGND VPWR sky130_fd_sc_hd__decap_3
XANTENNA__540__B2 _539_/X VGND VPWR sky130_fd_sc_hd__diode_2
XFILLER_20_23 VGND VPWR sky130_fd_sc_hd__fill_2
X_661_ _511_/X _661_/Q _413_/X _673_/CLK VGND VPWR sky130_fd_sc_hd__dfrtp_4
XFILLER_29_87 VGND VPWR sky130_fd_sc_hd__fill_2
XFILLER_28_141 VGND VPWR sky130_fd_sc_hd__fill_2
X_592_ _592_/A _590_/X _592_/X VGND VPWR sky130_fd_sc_hd__xor2_4
XFILLER_6_36 VGND VPWR sky130_fd_sc_hd__fill_1
XANTENNA__598__B2 _597_/X VGND VPWR sky130_fd_sc_hd__diode_2
XFILLER_19_174 VGND VPWR sky130_fd_sc_hd__fill_1
XANTENNA__696__D _696_/D VGND VPWR sky130_fd_sc_hd__diode_2
XFILLER_40_158 VGND VPWR sky130_fd_sc_hd__fill_1
XFILLER_25_100 VGND VPWR sky130_fd_sc_hd__fill_2
XFILLER_31_66 VGND VPWR sky130_fd_sc_hd__decap_4
XANTENNA__514__A _514_/A VGND VPWR sky130_fd_sc_hd__diode_2
X_575_ _571_/Y _572_/Y _679_/Q _572_/A _575_/X VGND VPWR sky130_fd_sc_hd__o22a_4
X_644_ _448_/Y _352_/A _433_/X _698_/CLK VGND VPWR sky130_fd_sc_hd__dfrtp_4
XFILLER_16_122 VGND VPWR sky130_fd_sc_hd__fill_1
XANTENNA__659__CLK _659_/CLK VGND VPWR sky130_fd_sc_hd__diode_2
XFILLER_31_147 VGND VPWR sky130_fd_sc_hd__decap_4
XPHY_194 VGND VPWR sky130_fd_sc_hd__tapvpwrvgnd_1
XPHY_183 VGND VPWR sky130_fd_sc_hd__tapvpwrvgnd_1
XANTENNA__424__A _423_/A VGND VPWR sky130_fd_sc_hd__diode_2
XPHY_150 VGND VPWR sky130_fd_sc_hd__tapvpwrvgnd_1
XFILLER_16_188 VGND VPWR sky130_fd_sc_hd__fill_2
XFILLER_16_199 VGND VPWR sky130_fd_sc_hd__fill_2
XPHY_161 VGND VPWR sky130_fd_sc_hd__tapvpwrvgnd_1
XPHY_172 VGND VPWR sky130_fd_sc_hd__tapvpwrvgnd_1
XANTENNA__504__B2 _503_/X VGND VPWR sky130_fd_sc_hd__diode_2
XFILLER_39_236 VGND VPWR sky130_fd_sc_hd__decap_3
XFILLER_30_191 VGND VPWR sky130_fd_sc_hd__decap_4
XFILLER_22_169 VGND VPWR sky130_fd_sc_hd__decap_4
XANTENNA__509__A _508_/X VGND VPWR sky130_fd_sc_hd__diode_2
XFILLER_42_76 VGND VPWR sky130_fd_sc_hd__decap_12
XFILLER_42_32 VGND VPWR sky130_fd_sc_hd__decap_8
X_360_ _372_/A _363_/A VGND VPWR sky130_fd_sc_hd__buf_1
XFILLER_13_158 VGND VPWR sky130_fd_sc_hd__decap_4
XFILLER_21_180 VGND VPWR sky130_fd_sc_hd__decap_3
XFILLER_21_191 VGND VPWR sky130_fd_sc_hd__fill_2
XFILLER_3_59 VGND VPWR sky130_fd_sc_hd__fill_2
XFILLER_3_15 VGND VPWR sky130_fd_sc_hd__decap_6
X_558_ _558_/A _558_/Y VGND VPWR sky130_fd_sc_hd__inv_8
X_627_ _621_/Y _622_/Y _628_/A _628_/B _693_/D VGND VPWR sky130_fd_sc_hd__a2bb2o_4
XANTENNA__419__A _420_/A VGND VPWR sky130_fd_sc_hd__diode_2
X_489_ _485_/Y _486_/Y _485_/A _486_/A _489_/X VGND VPWR sky130_fd_sc_hd__o22a_4
XFILLER_8_151 VGND VPWR sky130_fd_sc_hd__fill_2
XFILLER_12_180 VGND VPWR sky130_fd_sc_hd__decap_8
XANTENNA__489__B1 _485_/A VGND VPWR sky130_fd_sc_hd__diode_2
XFILLER_27_217 VGND VPWR sky130_fd_sc_hd__decap_4
XFILLER_10_106 VGND VPWR sky130_fd_sc_hd__decap_6
XFILLER_18_206 VGND VPWR sky130_fd_sc_hd__decap_4
X_412_ _414_/A _412_/X VGND VPWR sky130_fd_sc_hd__buf_1
X_343_ _340_/X _343_/B _700_/D VGND VPWR sky130_fd_sc_hd__xor2_4
XFILLER_38_7 VGND VPWR sky130_fd_sc_hd__decap_6
XFILLER_5_132 VGND VPWR sky130_fd_sc_hd__fill_2
XANTENNA__634__B1 _635_/A VGND VPWR sky130_fd_sc_hd__diode_2
XFILLER_23_56 VGND VPWR sky130_fd_sc_hd__fill_1
XANTENNA__522__A _668_/Q VGND VPWR sky130_fd_sc_hd__diode_2
XANTENNA__658__RESET_B _417_/X VGND VPWR sky130_fd_sc_hd__diode_2
XANTENNA__432__A _428_/X VGND VPWR sky130_fd_sc_hd__diode_2
XFILLER_29_3 VGND VPWR sky130_fd_sc_hd__fill_2
XANTENNA__607__A _607_/A VGND VPWR sky130_fd_sc_hd__diode_2
XANTENNA__699__D _342_/X VGND VPWR sky130_fd_sc_hd__diode_2
XFILLER_18_23 VGND VPWR sky130_fd_sc_hd__fill_2
XFILLER_34_11 VGND VPWR sky130_fd_sc_hd__fill_2
XFILLER_11_223 VGND VPWR sky130_fd_sc_hd__fill_2
XANTENNA__517__A _517_/A VGND VPWR sky130_fd_sc_hd__diode_2
XANTENNA__692__CLK _692_/CLK VGND VPWR sky130_fd_sc_hd__diode_2
XFILLER_7_249 VGND VPWR sky130_fd_sc_hd__decap_4
XFILLER_11_245 VGND VPWR sky130_fd_sc_hd__decap_8
XANTENNA__427__A _423_/A VGND VPWR sky130_fd_sc_hd__diode_2
XFILLER_37_131 VGND VPWR sky130_fd_sc_hd__fill_2
XFILLER_37_120 VGND VPWR sky130_fd_sc_hd__fill_2
XFILLER_37_175 VGND VPWR sky130_fd_sc_hd__fill_2
XANTENNA__337__A _337_/A VGND VPWR sky130_fd_sc_hd__diode_2
XFILLER_29_44 VGND VPWR sky130_fd_sc_hd__decap_12
XFILLER_29_33 VGND VPWR sky130_fd_sc_hd__fill_2
XFILLER_29_11 VGND VPWR sky130_fd_sc_hd__fill_2
X_660_ _505_/X _660_/Q _414_/X _659_/CLK VGND VPWR sky130_fd_sc_hd__dfrtp_4
XFILLER_28_186 VGND VPWR sky130_fd_sc_hd__fill_2
X_591_ _585_/Y _586_/Y _592_/A _590_/X _591_/X VGND VPWR sky130_fd_sc_hd__a2bb2o_4
XFILLER_3_230 VGND VPWR sky130_fd_sc_hd__fill_2
XFILLER_10_90 VGND VPWR sky130_fd_sc_hd__fill_2
XANTENNA__673__RESET_B _398_/X VGND VPWR sky130_fd_sc_hd__diode_2
XANTENNA__620__A _617_/X VGND VPWR sky130_fd_sc_hd__diode_2
XFILLER_25_123 VGND VPWR sky130_fd_sc_hd__fill_2
XFILLER_25_112 VGND VPWR sky130_fd_sc_hd__fill_2
XFILLER_40_126 VGND VPWR sky130_fd_sc_hd__decap_4
XFILLER_25_189 VGND VPWR sky130_fd_sc_hd__fill_2
XFILLER_15_46 VGND VPWR sky130_fd_sc_hd__fill_2
XFILLER_15_79 VGND VPWR sky130_fd_sc_hd__decap_4
XANTENNA__530__A _544_/A VGND VPWR sky130_fd_sc_hd__diode_2
XFILLER_0_244 VGND VPWR sky130_fd_sc_hd__decap_4
XFILLER_0_222 VGND VPWR sky130_fd_sc_hd__fill_2
XFILLER_0_211 VGND VPWR sky130_fd_sc_hd__fill_2
X_574_ _574_/A _577_/A VGND VPWR sky130_fd_sc_hd__buf_1
X_643_ _447_/X _643_/Q _434_/X _698_/CLK VGND VPWR sky130_fd_sc_hd__dfrtp_4
XFILLER_16_178 VGND VPWR sky130_fd_sc_hd__decap_6
XPHY_195 VGND VPWR sky130_fd_sc_hd__tapvpwrvgnd_1
XPHY_184 VGND VPWR sky130_fd_sc_hd__tapvpwrvgnd_1
XPHY_140 VGND VPWR sky130_fd_sc_hd__tapvpwrvgnd_1
XPHY_151 VGND VPWR sky130_fd_sc_hd__tapvpwrvgnd_1
XPHY_162 VGND VPWR sky130_fd_sc_hd__tapvpwrvgnd_1
XPHY_173 VGND VPWR sky130_fd_sc_hd__tapvpwrvgnd_1
XANTENNA__440__A _479_/A VGND VPWR sky130_fd_sc_hd__diode_2
XFILLER_11_3 VGND VPWR sky130_fd_sc_hd__fill_2
XANTENNA__615__A _615_/A VGND VPWR sky130_fd_sc_hd__diode_2
XFILLER_22_148 VGND VPWR sky130_fd_sc_hd__decap_4
XFILLER_7_80 VGND VPWR sky130_fd_sc_hd__decap_4
XANTENNA__350__A _350_/A VGND VPWR sky130_fd_sc_hd__diode_2
XFILLER_26_45 VGND VPWR sky130_fd_sc_hd__decap_4
XFILLER_13_115 VGND VPWR sky130_fd_sc_hd__decap_3
XFILLER_42_88 VGND VPWR sky130_fd_sc_hd__decap_4
XFILLER_42_44 VGND VPWR sky130_fd_sc_hd__decap_8
XFILLER_9_119 VGND VPWR sky130_fd_sc_hd__decap_3
X_488_ _487_/X _488_/X VGND VPWR sky130_fd_sc_hd__buf_1
X_557_ _675_/Q _557_/Y VGND VPWR sky130_fd_sc_hd__inv_8
X_626_ _621_/Y _622_/Y _693_/Q _622_/A _628_/B VGND VPWR sky130_fd_sc_hd__o22a_4
XANTENNA__435__A _366_/A VGND VPWR sky130_fd_sc_hd__diode_2
XANTENNA__489__A1 _485_/Y VGND VPWR sky130_fd_sc_hd__diode_2
XANTENNA__489__B2 _486_/A VGND VPWR sky130_fd_sc_hd__diode_2
XFILLER_35_240 VGND VPWR sky130_fd_sc_hd__decap_4
XANTENNA__345__A _704_/Q VGND VPWR sky130_fd_sc_hd__diode_2
XFILLER_12_36 VGND VPWR sky130_fd_sc_hd__fill_2
XFILLER_12_58 VGND VPWR sky130_fd_sc_hd__fill_2
XANTENNA__649__CLK _663_/CLK VGND VPWR sky130_fd_sc_hd__diode_2
XFILLER_37_99 VGND VPWR sky130_fd_sc_hd__fill_2
X_342_ _337_/Y _338_/Y _340_/X _343_/B _342_/X VGND VPWR sky130_fd_sc_hd__a2bb2o_4
X_411_ _414_/A _411_/X VGND VPWR sky130_fd_sc_hd__buf_1
XFILLER_5_177 VGND VPWR sky130_fd_sc_hd__fill_2
X_609_ _616_/A x[23] _610_/A VGND VPWR sky130_fd_sc_hd__and2_4
XFILLER_4_81 VGND VPWR sky130_fd_sc_hd__decap_8
XANTENNA__634__B2 _635_/B VGND VPWR sky130_fd_sc_hd__diode_2
XFILLER_23_243 VGND VPWR sky130_fd_sc_hd__fill_1
XFILLER_2_169 VGND VPWR sky130_fd_sc_hd__decap_4
XFILLER_2_136 VGND VPWR sky130_fd_sc_hd__decap_4
XFILLER_9_37 VGND VPWR sky130_fd_sc_hd__decap_4
XFILLER_9_48 VGND VPWR sky130_fd_sc_hd__fill_2
XFILLER_9_59 VGND VPWR sky130_fd_sc_hd__fill_2
XFILLER_14_232 VGND VPWR sky130_fd_sc_hd__decap_4
XANTENNA__561__B1 _675_/Q VGND VPWR sky130_fd_sc_hd__diode_2
XANTENNA__698__RESET_B _367_/X VGND VPWR sky130_fd_sc_hd__diode_2
XANTENNA__623__A y VGND VPWR sky130_fd_sc_hd__diode_2
XFILLER_20_213 VGND VPWR sky130_fd_sc_hd__fill_1
XFILLER_18_13 VGND VPWR sky130_fd_sc_hd__fill_2
XFILLER_18_68 VGND VPWR sky130_fd_sc_hd__decap_4
XFILLER_34_78 VGND VPWR sky130_fd_sc_hd__decap_6
XFILLER_34_23 VGND VPWR sky130_fd_sc_hd__fill_2
XANTENNA__533__A1_N _528_/Y VGND VPWR sky130_fd_sc_hd__diode_2
XFILLER_41_3 VGND VPWR sky130_fd_sc_hd__decap_12
XFILLER_6_250 VGND VPWR sky130_fd_sc_hd__decap_3
XFILLER_1_82 VGND VPWR sky130_fd_sc_hd__fill_2
XANTENNA__525__B1 _665_/Q VGND VPWR sky130_fd_sc_hd__diode_2
XANTENNA__353__A _479_/A VGND VPWR sky130_fd_sc_hd__diode_2
XFILLER_29_56 VGND VPWR sky130_fd_sc_hd__fill_1
XFILLER_28_154 VGND VPWR sky130_fd_sc_hd__decap_3
XANTENNA__528__A _528_/A VGND VPWR sky130_fd_sc_hd__diode_2
X_590_ _585_/Y _586_/Y _683_/Q _686_/Q _590_/X VGND VPWR sky130_fd_sc_hd__o22a_4
XFILLER_3_242 VGND VPWR sky130_fd_sc_hd__fill_2
XFILLER_6_27 VGND VPWR sky130_fd_sc_hd__decap_4
XFILLER_34_179 VGND VPWR sky130_fd_sc_hd__decap_8
XANTENNA__438__A _438_/A VGND VPWR sky130_fd_sc_hd__diode_2
XANTENNA__642__RESET_B _435_/X VGND VPWR sky130_fd_sc_hd__diode_2
XANTENNA_clkbuf_0_clk_A clk VGND VPWR sky130_fd_sc_hd__diode_2
XANTENNA__620__B _620_/B VGND VPWR sky130_fd_sc_hd__diode_2
XANTENNA__682__CLK _695_/CLK VGND VPWR sky130_fd_sc_hd__diode_2
XFILLER_31_13 VGND VPWR sky130_fd_sc_hd__fill_2
XFILLER_15_58 VGND VPWR sky130_fd_sc_hd__decap_3
XFILLER_31_57 VGND VPWR sky130_fd_sc_hd__decap_4
XANTENNA__530__B x[12] VGND VPWR sky130_fd_sc_hd__diode_2
X_642_ _642_/D p _435_/X _670_/CLK VGND VPWR sky130_fd_sc_hd__dfrtp_4
XFILLER_31_105 VGND VPWR sky130_fd_sc_hd__fill_2
X_573_ _559_/A x[18] _574_/A VGND VPWR sky130_fd_sc_hd__and2_4
XPHY_130 VGND VPWR sky130_fd_sc_hd__tapvpwrvgnd_1
XPHY_141 VGND VPWR sky130_fd_sc_hd__tapvpwrvgnd_1
XPHY_152 VGND VPWR sky130_fd_sc_hd__tapvpwrvgnd_1
XPHY_196 VGND VPWR sky130_fd_sc_hd__tapvpwrvgnd_1
XPHY_185 VGND VPWR sky130_fd_sc_hd__tapvpwrvgnd_1
XPHY_163 VGND VPWR sky130_fd_sc_hd__tapvpwrvgnd_1
XPHY_174 VGND VPWR sky130_fd_sc_hd__tapvpwrvgnd_1
XFILLER_39_249 VGND VPWR sky130_fd_sc_hd__decap_4
XANTENNA__350__B _348_/X VGND VPWR sky130_fd_sc_hd__diode_2
XANTENNA__631__A _624_/A VGND VPWR sky130_fd_sc_hd__diode_2
XFILLER_26_79 VGND VPWR sky130_fd_sc_hd__fill_2
XFILLER_26_13 VGND VPWR sky130_fd_sc_hd__fill_2
XFILLER_13_138 VGND VPWR sky130_fd_sc_hd__decap_3
XFILLER_13_127 VGND VPWR sky130_fd_sc_hd__decap_4
XFILLER_42_56 VGND VPWR sky130_fd_sc_hd__fill_2
XFILLER_21_160 VGND VPWR sky130_fd_sc_hd__fill_2
XFILLER_3_28 VGND VPWR sky130_fd_sc_hd__fill_2
XANTENNA__541__A _541_/A VGND VPWR sky130_fd_sc_hd__diode_2
XFILLER_36_219 VGND VPWR sky130_fd_sc_hd__fill_1
XFILLER_36_208 VGND VPWR sky130_fd_sc_hd__decap_6
X_625_ _625_/A _628_/A VGND VPWR sky130_fd_sc_hd__buf_1
X_487_ _508_/A x[6] _487_/X VGND VPWR sky130_fd_sc_hd__and2_4
X_556_ _553_/X _554_/X _556_/X VGND VPWR sky130_fd_sc_hd__xor2_4
XFILLER_16_90 VGND VPWR sky130_fd_sc_hd__fill_2
XANTENNA__489__A2 _486_/Y VGND VPWR sky130_fd_sc_hd__diode_2
XFILLER_8_197 VGND VPWR sky130_fd_sc_hd__fill_2
XANTENNA__451__A _472_/A VGND VPWR sky130_fd_sc_hd__diode_2
XANTENNA__361__A _363_/A VGND VPWR sky130_fd_sc_hd__diode_2
XFILLER_37_45 VGND VPWR sky130_fd_sc_hd__fill_2
XFILLER_37_34 VGND VPWR sky130_fd_sc_hd__fill_2
XFILLER_37_12 VGND VPWR sky130_fd_sc_hd__fill_2
XANTENNA_clkbuf_3_6_0_clk_A clkbuf_3_6_0_clk/A VGND VPWR sky130_fd_sc_hd__diode_2
XFILLER_41_233 VGND VPWR sky130_fd_sc_hd__decap_8
XFILLER_26_241 VGND VPWR sky130_fd_sc_hd__decap_12
X_410_ _422_/A _414_/A VGND VPWR sky130_fd_sc_hd__buf_1
X_341_ _337_/Y _338_/Y _337_/A _338_/A _343_/B VGND VPWR sky130_fd_sc_hd__o22a_4
XANTENNA__536__A _536_/A VGND VPWR sky130_fd_sc_hd__diode_2
XFILLER_5_123 VGND VPWR sky130_fd_sc_hd__fill_2
XFILLER_5_189 VGND VPWR sky130_fd_sc_hd__fill_2
X_608_ _692_/Q _608_/Y VGND VPWR sky130_fd_sc_hd__inv_8
XANTENNA__446__A _479_/A VGND VPWR sky130_fd_sc_hd__diode_2
X_539_ _535_/Y _536_/Y _669_/Q _536_/A _539_/X VGND VPWR sky130_fd_sc_hd__o22a_4
XFILLER_4_93 VGND VPWR sky130_fd_sc_hd__fill_2
XFILLER_2_104 VGND VPWR sky130_fd_sc_hd__decap_4
XANTENNA__561__A1 _557_/Y VGND VPWR sky130_fd_sc_hd__diode_2
XANTENNA__561__B2 _558_/A VGND VPWR sky130_fd_sc_hd__diode_2
XFILLER_13_91 VGND VPWR sky130_fd_sc_hd__fill_2
XFILLER_1_181 VGND VPWR sky130_fd_sc_hd__fill_2
XANTENNA__667__RESET_B _406_/X VGND VPWR sky130_fd_sc_hd__diode_2
XANTENNA__562__A2_N _558_/Y VGND VPWR sky130_fd_sc_hd__diode_2
XFILLER_18_36 VGND VPWR sky130_fd_sc_hd__decap_6
XFILLER_7_229 VGND VPWR sky130_fd_sc_hd__decap_4
XFILLER_11_236 VGND VPWR sky130_fd_sc_hd__fill_2
XFILLER_1_3 VGND VPWR sky130_fd_sc_hd__decap_4
XANTENNA_clkbuf_2_3_0_clk_A clkbuf_2_3_0_clk/A VGND VPWR sky130_fd_sc_hd__diode_2
XFILLER_34_3 VGND VPWR sky130_fd_sc_hd__fill_2
XFILLER_37_155 VGND VPWR sky130_fd_sc_hd__fill_2
XANTENNA__525__B2 _668_/Q VGND VPWR sky130_fd_sc_hd__diode_2
XANTENNA__525__A1 _521_/Y VGND VPWR sky130_fd_sc_hd__diode_2
XANTENNA__353__B x[30] VGND VPWR sky130_fd_sc_hd__diode_2
XFILLER_20_48 VGND VPWR sky130_fd_sc_hd__fill_2
XFILLER_28_111 VGND VPWR sky130_fd_sc_hd__fill_2
XANTENNA__461__B1 _459_/X VGND VPWR sky130_fd_sc_hd__diode_2
XANTENNA__544__A _544_/A VGND VPWR sky130_fd_sc_hd__diode_2
XANTENNA__454__A2_N _450_/Y VGND VPWR sky130_fd_sc_hd__diode_2
XFILLER_19_166 VGND VPWR sky130_fd_sc_hd__fill_2
XFILLER_19_177 VGND VPWR sky130_fd_sc_hd__fill_2
XFILLER_19_188 VGND VPWR sky130_fd_sc_hd__fill_2
XFILLER_42_191 VGND VPWR sky130_fd_sc_hd__fill_1
XANTENNA__682__RESET_B _387_/X VGND VPWR sky130_fd_sc_hd__diode_2
XFILLER_25_169 VGND VPWR sky130_fd_sc_hd__decap_12
XFILLER_25_136 VGND VPWR sky130_fd_sc_hd__fill_2
XANTENNA__443__B1 _437_/A VGND VPWR sky130_fd_sc_hd__diode_2
XANTENNA__629__A _629_/A VGND VPWR sky130_fd_sc_hd__diode_2
XFILLER_40_139 VGND VPWR sky130_fd_sc_hd__decap_12
XANTENNA__547__A1_N _542_/Y VGND VPWR sky130_fd_sc_hd__diode_2
XANTENNA__364__A _363_/A VGND VPWR sky130_fd_sc_hd__diode_2
X_641_ _444_/X _437_/A _436_/X _670_/CLK VGND VPWR sky130_fd_sc_hd__dfrtp_4
X_572_ _572_/A _572_/Y VGND VPWR sky130_fd_sc_hd__inv_8
XFILLER_31_117 VGND VPWR sky130_fd_sc_hd__decap_4
XPHY_120 VGND VPWR sky130_fd_sc_hd__tapvpwrvgnd_1
XPHY_131 VGND VPWR sky130_fd_sc_hd__tapvpwrvgnd_1
XPHY_142 VGND VPWR sky130_fd_sc_hd__tapvpwrvgnd_1
XPHY_153 VGND VPWR sky130_fd_sc_hd__tapvpwrvgnd_1
XFILLER_16_125 VGND VPWR sky130_fd_sc_hd__decap_3
XFILLER_16_147 VGND VPWR sky130_fd_sc_hd__fill_2
XPHY_164 VGND VPWR sky130_fd_sc_hd__tapvpwrvgnd_1
XPHY_175 VGND VPWR sky130_fd_sc_hd__tapvpwrvgnd_1
XPHY_197 VGND VPWR sky130_fd_sc_hd__tapvpwrvgnd_1
XPHY_186 VGND VPWR sky130_fd_sc_hd__tapvpwrvgnd_1
XANTENNA__449__A _645_/Q VGND VPWR sky130_fd_sc_hd__diode_2
XPHY_0 VGND VPWR sky130_fd_sc_hd__decap_3
XANTENNA_clkbuf_1_0_0_clk_A clkbuf_0_clk/X VGND VPWR sky130_fd_sc_hd__diode_2
XFILLER_30_150 VGND VPWR sky130_fd_sc_hd__decap_3
XFILLER_15_180 VGND VPWR sky130_fd_sc_hd__decap_3
XANTENNA__631__B x[26] VGND VPWR sky130_fd_sc_hd__diode_2
XANTENNA__359__A rst VGND VPWR sky130_fd_sc_hd__diode_2
XANTENNA_clkbuf_3_2_0_clk_A clkbuf_3_3_0_clk/A VGND VPWR sky130_fd_sc_hd__diode_2
XFILLER_26_25 VGND VPWR sky130_fd_sc_hd__decap_6
XANTENNA__541__B _539_/X VGND VPWR sky130_fd_sc_hd__diode_2
XFILLER_21_150 VGND VPWR sky130_fd_sc_hd__decap_4
X_555_ _549_/Y _550_/Y _553_/X _554_/X _555_/X VGND VPWR sky130_fd_sc_hd__a2bb2o_4
X_624_ _624_/A x[25] _625_/A VGND VPWR sky130_fd_sc_hd__and2_4
X_486_ _486_/A _486_/Y VGND VPWR sky130_fd_sc_hd__inv_8
XFILLER_8_154 VGND VPWR sky130_fd_sc_hd__fill_2
XFILLER_12_194 VGND VPWR sky130_fd_sc_hd__decap_8
XFILLER_16_80 VGND VPWR sky130_fd_sc_hd__decap_3
XANTENNA__672__CLK _673_/CLK VGND VPWR sky130_fd_sc_hd__diode_2
XFILLER_8_165 VGND VPWR sky130_fd_sc_hd__decap_4
XANTENNA__451__B x[1] VGND VPWR sky130_fd_sc_hd__diode_2
XFILLER_27_209 VGND VPWR sky130_fd_sc_hd__fill_2
XFILLER_12_27 VGND VPWR sky130_fd_sc_hd__decap_4
XFILLER_37_68 VGND VPWR sky130_fd_sc_hd__decap_4
XFILLER_41_245 VGND VPWR sky130_fd_sc_hd__decap_8