* NGSPICE file created from cbx_1__0_.ext - technology: sky130A

* Black-box entry subcircuit for sky130_fd_sc_hd__decap_12 abstract view
.subckt sky130_fd_sc_hd__decap_12 VGND VPWR
.ends

* Black-box entry subcircuit for sky130_fd_sc_hd__fill_2 abstract view
.subckt sky130_fd_sc_hd__fill_2 VGND VPWR
.ends

* Black-box entry subcircuit for sky130_fd_sc_hd__dfrbp_1 abstract view
.subckt sky130_fd_sc_hd__dfrbp_1 D Q Q_N RESET_B CLK VGND VPWR
.ends

* Black-box entry subcircuit for sky130_fd_sc_hd__decap_4 abstract view
.subckt sky130_fd_sc_hd__decap_4 VGND VPWR
.ends

* Black-box entry subcircuit for sky130_fd_sc_hd__decap_3 abstract view
.subckt sky130_fd_sc_hd__decap_3 VGND VPWR
.ends

* Black-box entry subcircuit for sky130_fd_sc_hd__decap_6 abstract view
.subckt sky130_fd_sc_hd__decap_6 VGND VPWR
.ends

* Black-box entry subcircuit for sky130_fd_sc_hd__diode_2 abstract view
.subckt sky130_fd_sc_hd__diode_2 DIODE VGND VPWR
.ends

* Black-box entry subcircuit for sky130_fd_sc_hd__clkbuf_1 abstract view
.subckt sky130_fd_sc_hd__clkbuf_1 A X VGND VPWR
.ends

* Black-box entry subcircuit for sky130_fd_sc_hd__fill_1 abstract view
.subckt sky130_fd_sc_hd__fill_1 VGND VPWR
.ends

* Black-box entry subcircuit for sky130_fd_sc_hd__decap_8 abstract view
.subckt sky130_fd_sc_hd__decap_8 VGND VPWR
.ends

* Black-box entry subcircuit for sky130_fd_sc_hd__buf_2 abstract view
.subckt sky130_fd_sc_hd__buf_2 A X VGND VPWR
.ends

* Black-box entry subcircuit for sky130_fd_sc_hd__tapvpwrvgnd_1 abstract view
.subckt sky130_fd_sc_hd__tapvpwrvgnd_1 VGND VPWR
.ends

* Black-box entry subcircuit for sky130_fd_sc_hd__conb_1 abstract view
.subckt sky130_fd_sc_hd__conb_1 HI LO VGND VPWR
.ends

* Black-box entry subcircuit for sky130_fd_sc_hd__clkbuf_16 abstract view
.subckt sky130_fd_sc_hd__clkbuf_16 A X VGND VPWR
.ends

.subckt cbx_1__0_ ccff_head chanx_in_1_ chanx_in_5_ chanx_in_11_ chanx_in_10_ bottom_grid_pin_2_
+ bottom_grid_pin_6_ chanx_in_6_ chanx_in_17_ chanx_out_1_ chanx_out_11_ chanx_in_7_
+ bottom_grid_pin_8_ chanx_in_3_ chanx_in_12_ chanx_out_6_ prog_clk chanx_in_15_ chanx_out_17_
+ chanx_out_5_ ccff_tail chanx_in_0_ top_grid_pin_2_ bottom_grid_pin_14_ chanx_in_8_
+ chanx_out_12_ chanx_in_4_ bottom_grid_pin_12_ top_grid_pin_14_ chanx_in_9_ chanx_out_16_
+ chanx_out_9_ top_grid_pin_6_ chanx_out_3_ pReset chanx_out_10_ chanx_out_8_ bottom_grid_pin_10_
+ bottom_grid_pin_4_ bottom_grid_pin_0_ chanx_out_14_ chanx_in_13_ chanx_out_4_ chanx_in_14_
+ chanx_out_13_ chanx_out_0_ chanx_in_2_ chanx_in_16_ chanx_out_7_ chanx_out_15_ chanx_out_2_
XFILLER_26_63 _26_/VGND _26_/VPWR sky130_fd_sc_hd__decap_12
XFILLER_13_100 _17_/VGND _15_/VPWR sky130_fd_sc_hd__fill_2
Xmem_top_ipin_0.sc_dff_compact_4_.sky130_fd_sc_hd__dfrbp_1 mem_top_ipin_0.sc_dff_compact_3_.sky130_fd_sc_hd__dfrbp_1/Q
+ mem_top_ipin_0.sc_dff_compact_4_.sky130_fd_sc_hd__dfrbp_1/Q mem_top_ipin_0.sc_dff_compact_4_.sky130_fd_sc_hd__dfrbp_1/Q_N
+ pReset clkbuf_3_3_0_prog_clk/X _17_/VGND _15_/VPWR sky130_fd_sc_hd__dfrbp_1
Xmem_bottom_ipin_2.sc_dff_compact_5_.sky130_fd_sc_hd__dfrbp_1 mem_bottom_ipin_2.sc_dff_compact_4_.sky130_fd_sc_hd__dfrbp_1/Q
+ mem_top_ipin_0.sc_dff_compact_0_.sky130_fd_sc_hd__dfrbp_1/D mem_bottom_ipin_2.sc_dff_compact_5_.sky130_fd_sc_hd__dfrbp_1/Q_N
+ pReset clkbuf_3_5_0_prog_clk/X _02_/VGND _05_/VPWR sky130_fd_sc_hd__dfrbp_1
XFILLER_9_115 _19_/VGND PHY_21/VPWR sky130_fd_sc_hd__fill_2
XFILLER_9_148 _19_/VGND PHY_21/VPWR sky130_fd_sc_hd__fill_2
XFILLER_12_32 _17_/VGND _17_/VPWR sky130_fd_sc_hd__decap_4
XFILLER_23_53 PHY_47/VGND _22_/VPWR sky130_fd_sc_hd__fill_2
Xmem_bottom_ipin_0.sc_dff_compact_0_.sky130_fd_sc_hd__dfrbp_1 ccff_head mem_bottom_ipin_0.sc_dff_compact_0_.sky130_fd_sc_hd__dfrbp_1/Q
+ mem_bottom_ipin_0.sc_dff_compact_0_.sky130_fd_sc_hd__dfrbp_1/Q_N pReset clkbuf_3_0_0_prog_clk/X
+ _06_/VGND _08_/VPWR sky130_fd_sc_hd__dfrbp_1
XFILLER_0_24 _02_/VGND _02_/VPWR sky130_fd_sc_hd__decap_3
XFILLER_2_154 _06_/VGND _05_/VPWR sky130_fd_sc_hd__decap_6
XFILLER_9_33 _19_/VGND PHY_21/VPWR sky130_fd_sc_hd__fill_2
XFILLER_9_55 _19_/VGND PHY_21/VPWR sky130_fd_sc_hd__fill_2
XFILLER_9_99 _19_/VGND PHY_21/VPWR sky130_fd_sc_hd__decap_6
XANTENNA_clkbuf_2_1_0_prog_clk_A clkbuf_2_1_0_prog_clk/A PHY_35/VGND PHY_33/VPWR sky130_fd_sc_hd__diode_2
Xclkbuf_3_4_0_prog_clk clkbuf_2_2_0_prog_clk/X clkbuf_3_4_0_prog_clk/X _19_/VGND PHY_21/VPWR
+ sky130_fd_sc_hd__clkbuf_1
XFILLER_18_97 PHY_39/VGND PHY_37/VPWR sky130_fd_sc_hd__fill_1
XANTENNA_mem_top_ipin_0.sc_dff_compact_2_.sky130_fd_sc_hd__dfrbp_1_D mem_top_ipin_0.sc_dff_compact_1_.sky130_fd_sc_hd__dfrbp_1/Q
+ _17_/VGND _15_/VPWR sky130_fd_sc_hd__diode_2
XFILLER_20_32 _13_/VGND _13_/VPWR sky130_fd_sc_hd__decap_12
XFILLER_13_3 _17_/VGND _15_/VPWR sky130_fd_sc_hd__decap_12
XFILLER_6_78 PHY_13/VGND PHY_13/VPWR sky130_fd_sc_hd__decap_8
XFILLER_6_89 PHY_13/VGND PHY_13/VPWR sky130_fd_sc_hd__decap_3
XANTENNA_mem_top_ipin_0.sc_dff_compact_5_.sky130_fd_sc_hd__dfrbp_1_CLK clkbuf_3_1_0_prog_clk/X
+ _19_/VGND PHY_21/VPWR sky130_fd_sc_hd__diode_2
XFILLER_25_131 _24_/VGND _26_/VPWR sky130_fd_sc_hd__decap_6
XFILLER_25_120 _24_/VGND _26_/VPWR sky130_fd_sc_hd__fill_2
XFILLER_16_142 PHY_35/VGND PHY_33/VPWR sky130_fd_sc_hd__decap_8
XFILLER_22_112 PHY_47/VGND PHY_45/VPWR sky130_fd_sc_hd__decap_4
XFILLER_22_101 PHY_47/VGND PHY_45/VPWR sky130_fd_sc_hd__decap_4
XFILLER_26_75 _26_/VGND _26_/VPWR sky130_fd_sc_hd__decap_12
XFILLER_26_20 _26_/VGND _26_/VPWR sky130_fd_sc_hd__decap_8
XFILLER_13_123 _17_/VGND _15_/VPWR sky130_fd_sc_hd__fill_2
XANTENNA_mem_top_ipin_1.sc_dff_compact_0_.sky130_fd_sc_hd__dfrbp_1_D mem_top_ipin_0.sc_dff_compact_5_.sky130_fd_sc_hd__dfrbp_1/Q
+ PHY_23/VGND PHY_21/VPWR sky130_fd_sc_hd__diode_2
XFILLER_12_66 _17_/VGND _17_/VPWR sky130_fd_sc_hd__fill_2
XFILLER_12_11 _17_/VGND _17_/VPWR sky130_fd_sc_hd__decap_8
XFILLER_6_108 PHY_13/VGND PHY_13/VPWR sky130_fd_sc_hd__fill_2
XFILLER_5_152 _08_/VGND PHY_13/VPWR sky130_fd_sc_hd__decap_8
XANTENNA_mem_top_ipin_0.sc_dff_compact_5_.sky130_fd_sc_hd__dfrbp_1_D mem_top_ipin_0.sc_dff_compact_4_.sky130_fd_sc_hd__dfrbp_1/Q
+ _19_/VGND _19_/VPWR sky130_fd_sc_hd__diode_2
XFILLER_23_10 PHY_47/VGND _22_/VPWR sky130_fd_sc_hd__decap_12
XANTENNA_mem_bottom_ipin_1.sc_dff_compact_1_.sky130_fd_sc_hd__dfrbp_1_RESET_B pReset
+ _02_/VGND _05_/VPWR sky130_fd_sc_hd__diode_2
XFILLER_0_36 _02_/VGND _02_/VPWR sky130_fd_sc_hd__fill_2
XANTENNA_mem_bottom_ipin_1.sc_dff_compact_0_.sky130_fd_sc_hd__dfrbp_1_CLK clkbuf_3_1_0_prog_clk/X
+ _06_/VGND _05_/VPWR sky130_fd_sc_hd__diode_2
XFILLER_18_87 PHY_39/VGND PHY_37/VPWR sky130_fd_sc_hd__decap_4
XFILLER_18_32 PHY_39/VGND PHY_37/VPWR sky130_fd_sc_hd__fill_2
XANTENNA_mem_bottom_ipin_2.sc_dff_compact_1_.sky130_fd_sc_hd__dfrbp_1_CLK clkbuf_3_4_0_prog_clk/X
+ _06_/VGND _08_/VPWR sky130_fd_sc_hd__diode_2
XFILLER_15_7 _15_/VGND PHY_33/VPWR sky130_fd_sc_hd__decap_4
XFILLER_20_88 _13_/VGND _13_/VPWR sky130_fd_sc_hd__decap_4
XFILLER_20_44 _13_/VGND _13_/VPWR sky130_fd_sc_hd__decap_6
XFILLER_6_57 PHY_13/VGND PHY_13/VPWR sky130_fd_sc_hd__fill_2
XFILLER_25_110 _24_/VGND _26_/VPWR sky130_fd_sc_hd__decap_8
XANTENNA_mem_top_ipin_1.sc_dff_compact_3_.sky130_fd_sc_hd__dfrbp_1_D mem_top_ipin_1.sc_dff_compact_3_.sky130_fd_sc_hd__dfrbp_1/D
+ _19_/VGND PHY_21/VPWR sky130_fd_sc_hd__diode_2
XFILLER_16_154 PHY_35/VGND PHY_33/VPWR sky130_fd_sc_hd__decap_6
XFILLER_15_77 _15_/VGND PHY_33/VPWR sky130_fd_sc_hd__fill_2
Xmem_top_ipin_5.sc_dff_compact_1_.sky130_fd_sc_hd__dfrbp_1 mem_top_ipin_5.sc_dff_compact_0_.sky130_fd_sc_hd__dfrbp_1/Q
+ mem_top_ipin_5.sc_dff_compact_2_.sky130_fd_sc_hd__dfrbp_1/D mem_top_ipin_5.sc_dff_compact_1_.sky130_fd_sc_hd__dfrbp_1/Q_N
+ pReset clkbuf_3_6_0_prog_clk/X PHY_39/VGND _13_/VPWR sky130_fd_sc_hd__dfrbp_1
XFILLER_26_32 _26_/VGND _26_/VPWR sky130_fd_sc_hd__decap_12
Xmem_top_ipin_2.sc_dff_compact_2_.sky130_fd_sc_hd__dfrbp_1 mem_top_ipin_2.sc_dff_compact_1_.sky130_fd_sc_hd__dfrbp_1/Q
+ mem_top_ipin_2.sc_dff_compact_2_.sky130_fd_sc_hd__dfrbp_1/Q mem_top_ipin_2.sc_dff_compact_2_.sky130_fd_sc_hd__dfrbp_1/Q_N
+ pReset clkbuf_3_2_0_prog_clk/X _17_/VGND _15_/VPWR sky130_fd_sc_hd__dfrbp_1
XFILLER_10_116 PHY_23/VGND PHY_21/VPWR sky130_fd_sc_hd__fill_2
XFILLER_10_105 PHY_23/VGND PHY_21/VPWR sky130_fd_sc_hd__decap_8
XANTENNA_mem_top_ipin_4.sc_dff_compact_1_.sky130_fd_sc_hd__dfrbp_1_CLK clkbuf_3_3_0_prog_clk/X
+ PHY_39/VGND _13_/VPWR sky130_fd_sc_hd__diode_2
XANTENNA_mem_top_ipin_3.sc_dff_compact_0_.sky130_fd_sc_hd__dfrbp_1_CLK clkbuf_3_2_0_prog_clk/X
+ _15_/VGND PHY_33/VPWR sky130_fd_sc_hd__diode_2
XFILLER_5_120 _08_/VGND PHY_13/VPWR sky130_fd_sc_hd__fill_2
XANTENNA_mem_top_ipin_5.sc_dff_compact_2_.sky130_fd_sc_hd__dfrbp_1_CLK clkbuf_3_6_0_prog_clk/X
+ PHY_47/VGND PHY_45/VPWR sky130_fd_sc_hd__diode_2
XANTENNA_mem_top_ipin_2.sc_dff_compact_1_.sky130_fd_sc_hd__dfrbp_1_D mem_top_ipin_2.sc_dff_compact_1_.sky130_fd_sc_hd__dfrbp_1/D
+ _15_/VGND _15_/VPWR sky130_fd_sc_hd__diode_2
XANTENNA_mem_top_ipin_6.sc_dff_compact_3_.sky130_fd_sc_hd__dfrbp_1_CLK clkbuf_3_7_0_prog_clk/X
+ _15_/VGND PHY_33/VPWR sky130_fd_sc_hd__diode_2
XFILLER_2_145 _06_/VGND _05_/VPWR sky130_fd_sc_hd__decap_8
XFILLER_3_3 _06_/VGND _08_/VPWR sky130_fd_sc_hd__fill_2
XANTENNA_mem_top_ipin_7.sc_dff_compact_4_.sky130_fd_sc_hd__dfrbp_1_CLK clkbuf_3_4_0_prog_clk/X
+ _06_/VGND _08_/VPWR sky130_fd_sc_hd__diode_2
XFILLER_9_46 _19_/VGND PHY_21/VPWR sky130_fd_sc_hd__fill_2
XFILLER_18_22 PHY_39/VGND PHY_37/VPWR sky130_fd_sc_hd__fill_2
XFILLER_18_11 PHY_39/VGND PHY_37/VPWR sky130_fd_sc_hd__decap_8
XFILLER_22_9 PHY_47/VGND PHY_45/VPWR sky130_fd_sc_hd__fill_2
XANTENNA_clkbuf_1_0_0_prog_clk_A clkbuf_0_prog_clk/X PHY_23/VGND _17_/VPWR sky130_fd_sc_hd__diode_2
XANTENNA_mem_top_ipin_7.sc_dff_compact_0_.sky130_fd_sc_hd__dfrbp_1_RESET_B pReset
+ PHY_23/VGND _17_/VPWR sky130_fd_sc_hd__diode_2
XFILLER_19_152 PHY_39/VGND _13_/VPWR sky130_fd_sc_hd__decap_8
XFILLER_16_100 PHY_35/VGND PHY_33/VPWR sky130_fd_sc_hd__decap_8
Xclkbuf_2_1_0_prog_clk clkbuf_2_1_0_prog_clk/A clkbuf_3_3_0_prog_clk/A PHY_35/VGND
+ PHY_37/VPWR sky130_fd_sc_hd__clkbuf_1
XFILLER_26_44 _26_/VGND _26_/VPWR sky130_fd_sc_hd__decap_12
XANTENNA_mem_top_ipin_2.sc_dff_compact_4_.sky130_fd_sc_hd__dfrbp_1_D mem_top_ipin_2.sc_dff_compact_3_.sky130_fd_sc_hd__dfrbp_1/Q
+ _15_/VGND PHY_33/VPWR sky130_fd_sc_hd__diode_2
XFILLER_9_107 _19_/VGND PHY_21/VPWR sky130_fd_sc_hd__fill_2
XFILLER_3_59 _06_/VGND _08_/VPWR sky130_fd_sc_hd__fill_2
XFILLER_12_24 _17_/VGND _17_/VPWR sky130_fd_sc_hd__fill_2
XANTENNA_mem_bottom_ipin_0.sc_dff_compact_1_.sky130_fd_sc_hd__dfrbp_1_RESET_B pReset
+ _08_/VGND _08_/VPWR sky130_fd_sc_hd__diode_2
XANTENNA_mem_bottom_ipin_2.sc_dff_compact_2_.sky130_fd_sc_hd__dfrbp_1_RESET_B pReset
+ _08_/VGND PHY_13/VPWR sky130_fd_sc_hd__diode_2
XANTENNA__12__A chanx_in_10_ _24_/VGND _26_/VPWR sky130_fd_sc_hd__diode_2
XFILLER_23_89 PHY_47/VGND _22_/VPWR sky130_fd_sc_hd__fill_2
XFILLER_0_16 _02_/VGND _02_/VPWR sky130_fd_sc_hd__decap_8
XANTENNA_mem_top_ipin_3.sc_dff_compact_2_.sky130_fd_sc_hd__dfrbp_1_D mem_top_ipin_3.sc_dff_compact_1_.sky130_fd_sc_hd__dfrbp_1/Q
+ PHY_47/VGND PHY_45/VPWR sky130_fd_sc_hd__diode_2
XFILLER_20_13 _13_/VGND _13_/VPWR sky130_fd_sc_hd__decap_12
Xclkbuf_3_3_0_prog_clk clkbuf_3_3_0_prog_clk/A clkbuf_3_3_0_prog_clk/X PHY_39/VGND
+ _13_/VPWR sky130_fd_sc_hd__clkbuf_1
XFILLER_6_15 PHY_13/VGND PHY_13/VPWR sky130_fd_sc_hd__decap_4
XFILLER_6_26 PHY_13/VGND PHY_13/VPWR sky130_fd_sc_hd__decap_4
XFILLER_25_123 _24_/VGND _26_/VPWR sky130_fd_sc_hd__decap_4
XANTENNA__20__A chanx_in_1_ PHY_47/VGND _22_/VPWR sky130_fd_sc_hd__diode_2
XFILLER_15_46 _15_/VGND PHY_33/VPWR sky130_fd_sc_hd__fill_2
XFILLER_15_13 _15_/VGND PHY_33/VPWR sky130_fd_sc_hd__fill_2
Xmem_top_ipin_6.sc_dff_compact_5_.sky130_fd_sc_hd__dfrbp_1 mem_top_ipin_6.sc_dff_compact_4_.sky130_fd_sc_hd__dfrbp_1/Q
+ mem_top_ipin_6.sc_dff_compact_5_.sky130_fd_sc_hd__dfrbp_1/Q mem_top_ipin_6.sc_dff_compact_5_.sky130_fd_sc_hd__dfrbp_1/Q_N
+ pReset clkbuf_3_4_0_prog_clk/X _17_/VGND _15_/VPWR sky130_fd_sc_hd__dfrbp_1
XFILLER_11_3 PHY_23/VGND _17_/VPWR sky130_fd_sc_hd__fill_2
XFILLER_26_89 _26_/VGND _26_/VPWR sky130_fd_sc_hd__decap_4
XFILLER_26_56 _26_/VGND _26_/VPWR sky130_fd_sc_hd__decap_6
XFILLER_13_104 _17_/VGND _15_/VPWR sky130_fd_sc_hd__fill_2
XANTENNA_mem_top_ipin_4.sc_dff_compact_0_.sky130_fd_sc_hd__dfrbp_1_D mem_top_ipin_3.sc_dff_compact_5_.sky130_fd_sc_hd__dfrbp_1/Q
+ _13_/VGND PHY_45/VPWR sky130_fd_sc_hd__diode_2
XFILLER_13_148 _17_/VGND _15_/VPWR sky130_fd_sc_hd__fill_2
XANTENNA__15__A chanx_in_13_ _17_/VGND _15_/VPWR sky130_fd_sc_hd__diode_2
XFILLER_3_38 _06_/VGND _08_/VPWR sky130_fd_sc_hd__fill_2
XFILLER_12_36 _17_/VGND _17_/VPWR sky130_fd_sc_hd__fill_1
XANTENNA_mem_top_ipin_3.sc_dff_compact_5_.sky130_fd_sc_hd__dfrbp_1_D mem_top_ipin_3.sc_dff_compact_4_.sky130_fd_sc_hd__dfrbp_1/Q
+ PHY_47/VGND _22_/VPWR sky130_fd_sc_hd__diode_2
Xmem_top_ipin_4.sc_dff_compact_0_.sky130_fd_sc_hd__dfrbp_1 mem_top_ipin_3.sc_dff_compact_5_.sky130_fd_sc_hd__dfrbp_1/Q
+ mem_top_ipin_4.sc_dff_compact_0_.sky130_fd_sc_hd__dfrbp_1/Q mem_top_ipin_4.sc_dff_compact_0_.sky130_fd_sc_hd__dfrbp_1/Q_N
+ pReset clkbuf_3_3_0_prog_clk/X PHY_47/VGND PHY_45/VPWR sky130_fd_sc_hd__dfrbp_1
XFILLER_23_79 PHY_47/VGND _22_/VPWR sky130_fd_sc_hd__decap_4
XFILLER_23_57 PHY_47/VGND _22_/VPWR sky130_fd_sc_hd__decap_4
XFILLER_23_24 PHY_47/VGND _22_/VPWR sky130_fd_sc_hd__fill_2
Xmem_top_ipin_1.sc_dff_compact_1_.sky130_fd_sc_hd__dfrbp_1 mem_top_ipin_1.sc_dff_compact_1_.sky130_fd_sc_hd__dfrbp_1/D
+ mem_top_ipin_1.sc_dff_compact_1_.sky130_fd_sc_hd__dfrbp_1/Q mem_top_ipin_1.sc_dff_compact_1_.sky130_fd_sc_hd__dfrbp_1/Q_N
+ pReset clkbuf_3_3_0_prog_clk/X _17_/VGND _17_/VPWR sky130_fd_sc_hd__dfrbp_1
XFILLER_2_103 _06_/VGND _05_/VPWR sky130_fd_sc_hd__decap_8
XFILLER_2_114 _06_/VGND _05_/VPWR sky130_fd_sc_hd__decap_4
XFILLER_9_59 _19_/VGND PHY_21/VPWR sky130_fd_sc_hd__fill_2
XANTENNA_mem_top_ipin_6.sc_dff_compact_0_.sky130_fd_sc_hd__dfrbp_1_RESET_B pReset
+ _13_/VGND PHY_45/VPWR sky130_fd_sc_hd__diode_2
XFILLER_18_57 PHY_39/VGND PHY_37/VPWR sky130_fd_sc_hd__decap_12
Xmem_bottom_ipin_0.sc_dff_compact_3_.sky130_fd_sc_hd__dfrbp_1 mem_bottom_ipin_0.sc_dff_compact_3_.sky130_fd_sc_hd__dfrbp_1/D
+ mem_bottom_ipin_0.sc_dff_compact_3_.sky130_fd_sc_hd__dfrbp_1/Q mem_bottom_ipin_0.sc_dff_compact_3_.sky130_fd_sc_hd__dfrbp_1/Q_N
+ pReset clkbuf_3_1_0_prog_clk/X PHY_13/VGND PHY_13/VPWR sky130_fd_sc_hd__dfrbp_1
XANTENNA__23__A chanx_in_4_ _02_/VGND _05_/VPWR sky130_fd_sc_hd__diode_2
X_28_ chanx_in_9_ chanx_out_9_ _13_/VGND _13_/VPWR sky130_fd_sc_hd__buf_2
XANTENNA__18__A chanx_in_16_ PHY_47/VGND PHY_45/VPWR sky130_fd_sc_hd__diode_2
XFILLER_20_25 _13_/VGND _13_/VPWR sky130_fd_sc_hd__decap_6
XANTENNA_mem_top_ipin_4.sc_dff_compact_3_.sky130_fd_sc_hd__dfrbp_1_D mem_top_ipin_4.sc_dff_compact_2_.sky130_fd_sc_hd__dfrbp_1/Q
+ PHY_39/VGND PHY_37/VPWR sky130_fd_sc_hd__diode_2
XFILLER_19_121 PHY_39/VGND _13_/VPWR sky130_fd_sc_hd__fill_1
XFILLER_25_146 _24_/VGND _26_/VPWR sky130_fd_sc_hd__fill_2
XFILLER_15_58 _15_/VGND PHY_33/VPWR sky130_fd_sc_hd__decap_3
XFILLER_16_113 PHY_35/VGND PHY_33/VPWR sky130_fd_sc_hd__fill_2
XFILLER_22_105 PHY_47/VGND PHY_45/VPWR sky130_fd_sc_hd__fill_1
XFILLER_13_116 _17_/VGND _15_/VPWR sky130_fd_sc_hd__fill_2
XFILLER_3_28 _06_/VGND _08_/VPWR sky130_fd_sc_hd__fill_2
XFILLER_8_120 _19_/VGND _19_/VPWR sky130_fd_sc_hd__fill_2
XANTENNA__26__A chanx_in_7_ _24_/VGND _26_/VPWR sky130_fd_sc_hd__diode_2
XANTENNA_mem_top_ipin_5.sc_dff_compact_1_.sky130_fd_sc_hd__dfrbp_1_D mem_top_ipin_5.sc_dff_compact_0_.sky130_fd_sc_hd__dfrbp_1/Q
+ PHY_39/VGND PHY_37/VPWR sky130_fd_sc_hd__diode_2
XFILLER_5_112 _08_/VGND PHY_13/VPWR sky130_fd_sc_hd__fill_2
XFILLER_5_123 _08_/VGND PHY_13/VPWR sky130_fd_sc_hd__fill_2
XFILLER_4_93 _08_/VGND _08_/VPWR sky130_fd_sc_hd__decap_12
XFILLER_0_29 _02_/VGND _02_/VPWR sky130_fd_sc_hd__fill_2
XFILLER_9_38 _19_/VGND PHY_21/VPWR sky130_fd_sc_hd__fill_2
XANTENNA_mem_top_ipin_0.sc_dff_compact_4_.sky130_fd_sc_hd__dfrbp_1_CLK clkbuf_3_3_0_prog_clk/X
+ _17_/VGND _17_/VPWR sky130_fd_sc_hd__diode_2
XANTENNA_mem_top_ipin_1.sc_dff_compact_5_.sky130_fd_sc_hd__dfrbp_1_CLK clkbuf_3_0_0_prog_clk/X
+ PHY_23/VGND PHY_21/VPWR sky130_fd_sc_hd__diode_2
XFILLER_18_69 PHY_39/VGND PHY_37/VPWR sky130_fd_sc_hd__decap_12
XANTENNA_clkbuf_3_3_0_prog_clk_A clkbuf_3_3_0_prog_clk/A PHY_35/VGND PHY_37/VPWR sky130_fd_sc_hd__diode_2
XFILLER_1_3 _02_/VGND _05_/VPWR sky130_fd_sc_hd__decap_3
X_27_ chanx_in_8_ chanx_out_8_ _06_/VGND _08_/VPWR sky130_fd_sc_hd__buf_2
XFILLER_20_9 _13_/VGND _13_/VPWR sky130_fd_sc_hd__fill_2
XANTENNA_mem_bottom_ipin_0.sc_dff_compact_0_.sky130_fd_sc_hd__dfrbp_1_D ccff_head
+ _08_/VGND _08_/VPWR sky130_fd_sc_hd__diode_2
XFILLER_25_158 _24_/VGND _26_/VPWR sky130_fd_sc_hd__fill_2
XPHY_120 _24_/VGND _26_/VPWR sky130_fd_sc_hd__tapvpwrvgnd_1
XANTENNA_mem_top_ipin_5.sc_dff_compact_4_.sky130_fd_sc_hd__dfrbp_1_D mem_top_ipin_5.sc_dff_compact_3_.sky130_fd_sc_hd__dfrbp_1/Q
+ PHY_47/VGND _22_/VPWR sky130_fd_sc_hd__diode_2
XPHY_0 _02_/VGND _02_/VPWR sky130_fd_sc_hd__decap_3
XFILLER_7_60 PHY_13/VGND _19_/VPWR sky130_fd_sc_hd__fill_1
XFILLER_7_82 PHY_13/VGND _19_/VPWR sky130_fd_sc_hd__fill_1
Xmem_top_ipin_5.sc_dff_compact_4_.sky130_fd_sc_hd__dfrbp_1 mem_top_ipin_5.sc_dff_compact_3_.sky130_fd_sc_hd__dfrbp_1/Q
+ mem_top_ipin_5.sc_dff_compact_5_.sky130_fd_sc_hd__dfrbp_1/D mem_top_ipin_5.sc_dff_compact_4_.sky130_fd_sc_hd__dfrbp_1/Q_N
+ pReset clkbuf_3_6_0_prog_clk/X PHY_47/VGND _22_/VPWR sky130_fd_sc_hd__dfrbp_1
XFILLER_8_154 _19_/VGND _19_/VPWR sky130_fd_sc_hd__decap_6
XANTENNA_mem_bottom_ipin_2.sc_dff_compact_0_.sky130_fd_sc_hd__dfrbp_1_CLK clkbuf_3_7_0_prog_clk/X
+ _24_/VGND _26_/VPWR sky130_fd_sc_hd__diode_2
Xmem_top_ipin_2.sc_dff_compact_5_.sky130_fd_sc_hd__dfrbp_1 mem_top_ipin_2.sc_dff_compact_5_.sky130_fd_sc_hd__dfrbp_1/D
+ mem_top_ipin_2.sc_dff_compact_5_.sky130_fd_sc_hd__dfrbp_1/Q mem_top_ipin_2.sc_dff_compact_5_.sky130_fd_sc_hd__dfrbp_1/Q_N
+ pReset clkbuf_3_3_0_prog_clk/X PHY_39/VGND PHY_37/VPWR sky130_fd_sc_hd__dfrbp_1
XANTENNA_mem_top_ipin_5.sc_dff_compact_0_.sky130_fd_sc_hd__dfrbp_1_RESET_B pReset
+ PHY_35/VGND PHY_37/VPWR sky130_fd_sc_hd__diode_2
Xclkbuf_2_0_0_prog_clk clkbuf_2_1_0_prog_clk/A clkbuf_2_0_0_prog_clk/X _19_/VGND PHY_21/VPWR
+ sky130_fd_sc_hd__clkbuf_1
XFILLER_4_61 _08_/VGND _08_/VPWR sky130_fd_sc_hd__fill_1
XFILLER_13_92 _17_/VGND _15_/VPWR sky130_fd_sc_hd__fill_2
XFILLER_9_28 _19_/VGND PHY_21/VPWR sky130_fd_sc_hd__decap_3
XANTENNA_mem_top_ipin_7.sc_dff_compact_1_.sky130_fd_sc_hd__dfrbp_1_RESET_B pReset
+ _19_/VGND PHY_21/VPWR sky130_fd_sc_hd__diode_2
XANTENNA_mem_top_ipin_6.sc_dff_compact_2_.sky130_fd_sc_hd__dfrbp_1_D mem_top_ipin_6.sc_dff_compact_1_.sky130_fd_sc_hd__dfrbp_1/Q
+ PHY_35/VGND PHY_37/VPWR sky130_fd_sc_hd__diode_2
XANTENNA_mem_bottom_ipin_0.sc_dff_compact_3_.sky130_fd_sc_hd__dfrbp_1_D mem_bottom_ipin_0.sc_dff_compact_3_.sky130_fd_sc_hd__dfrbp_1/D
+ _08_/VGND PHY_13/VPWR sky130_fd_sc_hd__diode_2
XFILLER_18_26 PHY_39/VGND PHY_37/VPWR sky130_fd_sc_hd__decap_4
Xmem_bottom_ipin_2.sc_dff_compact_1_.sky130_fd_sc_hd__dfrbp_1 mem_bottom_ipin_2.sc_dff_compact_0_.sky130_fd_sc_hd__dfrbp_1/Q
+ mem_bottom_ipin_2.sc_dff_compact_2_.sky130_fd_sc_hd__dfrbp_1/D mem_bottom_ipin_2.sc_dff_compact_1_.sky130_fd_sc_hd__dfrbp_1/Q_N
+ pReset clkbuf_3_4_0_prog_clk/X _06_/VGND _08_/VPWR sky130_fd_sc_hd__dfrbp_1
Xmem_top_ipin_0.sc_dff_compact_0_.sky130_fd_sc_hd__dfrbp_1 mem_top_ipin_0.sc_dff_compact_0_.sky130_fd_sc_hd__dfrbp_1/D
+ mem_top_ipin_0.sc_dff_compact_1_.sky130_fd_sc_hd__dfrbp_1/D mem_top_ipin_0.sc_dff_compact_0_.sky130_fd_sc_hd__dfrbp_1/Q_N
+ pReset clkbuf_3_0_0_prog_clk/X _02_/VGND _05_/VPWR sky130_fd_sc_hd__dfrbp_1
X_26_ chanx_in_7_ chanx_out_7_ _26_/VGND _26_/VPWR sky130_fd_sc_hd__buf_2
XFILLER_1_62 _02_/VGND _05_/VPWR sky130_fd_sc_hd__fill_2
XFILLER_19_123 PHY_39/VGND _13_/VPWR sky130_fd_sc_hd__fill_2
XFILLER_19_112 PHY_39/VGND _13_/VPWR sky130_fd_sc_hd__fill_2
XFILLER_10_93 PHY_23/VGND PHY_21/VPWR sky130_fd_sc_hd__decap_12
XFILLER_25_137 _24_/VGND _26_/VPWR sky130_fd_sc_hd__fill_1
XFILLER_15_38 _15_/VGND PHY_33/VPWR sky130_fd_sc_hd__fill_2
X_09_ _09_/HI bottom_grid_pin_0_ _06_/VGND _05_/VPWR sky130_fd_sc_hd__conb_1
XANTENNA_mem_bottom_ipin_0.sc_dff_compact_2_.sky130_fd_sc_hd__dfrbp_1_RESET_B pReset
+ _06_/VGND _08_/VPWR sky130_fd_sc_hd__diode_2
XPHY_121 _26_/VGND _26_/VPWR sky130_fd_sc_hd__tapvpwrvgnd_1
XPHY_110 _13_/VGND PHY_45/VPWR sky130_fd_sc_hd__tapvpwrvgnd_1
XFILLER_22_118 PHY_47/VGND PHY_45/VPWR sky130_fd_sc_hd__fill_2
XANTENNA_mem_top_ipin_4.sc_dff_compact_0_.sky130_fd_sc_hd__dfrbp_1_CLK clkbuf_3_3_0_prog_clk/X
+ _13_/VGND PHY_45/VPWR sky130_fd_sc_hd__diode_2
XANTENNA_mem_top_ipin_5.sc_dff_compact_1_.sky130_fd_sc_hd__dfrbp_1_CLK clkbuf_3_6_0_prog_clk/X
+ PHY_39/VGND _13_/VPWR sky130_fd_sc_hd__diode_2
XANTENNA_mem_top_ipin_7.sc_dff_compact_0_.sky130_fd_sc_hd__dfrbp_1_D mem_top_ipin_6.sc_dff_compact_5_.sky130_fd_sc_hd__dfrbp_1/Q
+ _17_/VGND _17_/VPWR sky130_fd_sc_hd__diode_2
XPHY_1 _02_/VGND _02_/VPWR sky130_fd_sc_hd__decap_3
XANTENNA_mem_bottom_ipin_1.sc_dff_compact_1_.sky130_fd_sc_hd__dfrbp_1_D mem_bottom_ipin_1.sc_dff_compact_0_.sky130_fd_sc_hd__dfrbp_1/Q
+ _02_/VGND _02_/VPWR sky130_fd_sc_hd__diode_2
XFILLER_7_50 PHY_13/VGND _19_/VPWR sky130_fd_sc_hd__fill_2
XANTENNA_mem_bottom_ipin_2.sc_dff_compact_3_.sky130_fd_sc_hd__dfrbp_1_RESET_B pReset
+ PHY_13/VGND PHY_13/VPWR sky130_fd_sc_hd__diode_2
XFILLER_26_15 _26_/VGND _26_/VPWR sky130_fd_sc_hd__decap_3
Xclkbuf_3_2_0_prog_clk clkbuf_3_3_0_prog_clk/A clkbuf_3_2_0_prog_clk/X PHY_39/VGND
+ PHY_37/VPWR sky130_fd_sc_hd__clkbuf_1
XANTENNA_mem_top_ipin_6.sc_dff_compact_2_.sky130_fd_sc_hd__dfrbp_1_CLK clkbuf_3_7_0_prog_clk/X
+ PHY_35/VGND PHY_33/VPWR sky130_fd_sc_hd__diode_2
XFILLER_16_81 PHY_35/VGND PHY_33/VPWR sky130_fd_sc_hd__decap_3
XANTENNA_mem_top_ipin_7.sc_dff_compact_3_.sky130_fd_sc_hd__dfrbp_1_CLK clkbuf_3_5_0_prog_clk/X
+ _08_/VGND PHY_13/VPWR sky130_fd_sc_hd__diode_2
XANTENNA_mem_top_ipin_6.sc_dff_compact_5_.sky130_fd_sc_hd__dfrbp_1_D mem_top_ipin_6.sc_dff_compact_4_.sky130_fd_sc_hd__dfrbp_1/Q
+ _17_/VGND _15_/VPWR sky130_fd_sc_hd__diode_2
XFILLER_12_28 _17_/VGND _17_/VPWR sky130_fd_sc_hd__decap_3
XFILLER_24_81 _24_/VGND _22_/VPWR sky130_fd_sc_hd__decap_6
X_25_ chanx_in_6_ chanx_out_6_ _06_/VGND _08_/VPWR sky130_fd_sc_hd__buf_2
XANTENNA_mem_top_ipin_7.sc_dff_compact_3_.sky130_fd_sc_hd__dfrbp_1_D mem_top_ipin_7.sc_dff_compact_2_.sky130_fd_sc_hd__dfrbp_1/Q
+ _08_/VGND PHY_13/VPWR sky130_fd_sc_hd__diode_2
XFILLER_10_61 PHY_23/VGND PHY_21/VPWR sky130_fd_sc_hd__fill_1
XFILLER_19_70 PHY_39/VGND _13_/VPWR sky130_fd_sc_hd__decap_3
XANTENNA_clkbuf_2_2_0_prog_clk_A clkbuf_2_3_0_prog_clk/A PHY_23/VGND _17_/VPWR sky130_fd_sc_hd__diode_2
X_08_ _08_/HI bottom_grid_pin_10_ _08_/VGND _08_/VPWR sky130_fd_sc_hd__conb_1
XFILLER_25_127 _24_/VGND _26_/VPWR sky130_fd_sc_hd__fill_1
XPHY_100 PHY_35/VGND PHY_37/VPWR sky130_fd_sc_hd__tapvpwrvgnd_1
XFILLER_16_138 PHY_35/VGND PHY_33/VPWR sky130_fd_sc_hd__fill_2
XPHY_122 _26_/VGND _26_/VPWR sky130_fd_sc_hd__tapvpwrvgnd_1
XFILLER_22_108 PHY_47/VGND PHY_45/VPWR sky130_fd_sc_hd__fill_2
XPHY_111 PHY_47/VGND PHY_45/VPWR sky130_fd_sc_hd__tapvpwrvgnd_1
XPHY_2 _02_/VGND _05_/VPWR sky130_fd_sc_hd__decap_3
XFILLER_21_152 _13_/VGND PHY_45/VPWR sky130_fd_sc_hd__decap_8
XANTENNA_mem_top_ipin_4.sc_dff_compact_0_.sky130_fd_sc_hd__dfrbp_1_RESET_B pReset
+ _13_/VGND PHY_45/VPWR sky130_fd_sc_hd__diode_2
XFILLER_13_108 _17_/VGND _15_/VPWR sky130_fd_sc_hd__decap_6
XFILLER_7_62 PHY_13/VGND _19_/VPWR sky130_fd_sc_hd__decap_12
XFILLER_16_93 PHY_35/VGND PHY_33/VPWR sky130_fd_sc_hd__decap_4
XFILLER_8_145 _19_/VGND _19_/VPWR sky130_fd_sc_hd__decap_8
XANTENNA_mem_top_ipin_6.sc_dff_compact_1_.sky130_fd_sc_hd__dfrbp_1_RESET_B pReset
+ _13_/VGND _13_/VPWR sky130_fd_sc_hd__diode_2
XANTENNA_mem_bottom_ipin_2.sc_dff_compact_2_.sky130_fd_sc_hd__dfrbp_1_D mem_bottom_ipin_2.sc_dff_compact_2_.sky130_fd_sc_hd__dfrbp_1/D
+ _08_/VGND PHY_13/VPWR sky130_fd_sc_hd__diode_2
Xmem_top_ipin_7.sc_dff_compact_2_.sky130_fd_sc_hd__dfrbp_1 mem_top_ipin_7.sc_dff_compact_1_.sky130_fd_sc_hd__dfrbp_1/Q
+ mem_top_ipin_7.sc_dff_compact_2_.sky130_fd_sc_hd__dfrbp_1/Q mem_top_ipin_7.sc_dff_compact_2_.sky130_fd_sc_hd__dfrbp_1/Q_N
+ pReset clkbuf_3_4_0_prog_clk/X _19_/VGND _19_/VPWR sky130_fd_sc_hd__dfrbp_1
XFILLER_5_104 _08_/VGND PHY_13/VPWR sky130_fd_sc_hd__fill_2
XFILLER_5_148 _08_/VGND PHY_13/VPWR sky130_fd_sc_hd__fill_2
Xmem_top_ipin_4.sc_dff_compact_3_.sky130_fd_sc_hd__dfrbp_1 mem_top_ipin_4.sc_dff_compact_2_.sky130_fd_sc_hd__dfrbp_1/Q
+ mem_top_ipin_4.sc_dff_compact_4_.sky130_fd_sc_hd__dfrbp_1/D mem_top_ipin_4.sc_dff_compact_3_.sky130_fd_sc_hd__dfrbp_1/Q_N
+ pReset clkbuf_3_7_0_prog_clk/X PHY_35/VGND PHY_37/VPWR sky130_fd_sc_hd__dfrbp_1
XFILLER_23_28 PHY_47/VGND _22_/VPWR sky130_fd_sc_hd__fill_2
Xmem_top_ipin_1.sc_dff_compact_4_.sky130_fd_sc_hd__dfrbp_1 mem_top_ipin_1.sc_dff_compact_3_.sky130_fd_sc_hd__dfrbp_1/Q
+ mem_top_ipin_1.sc_dff_compact_5_.sky130_fd_sc_hd__dfrbp_1/D mem_top_ipin_1.sc_dff_compact_4_.sky130_fd_sc_hd__dfrbp_1/Q_N
+ pReset clkbuf_3_0_0_prog_clk/X PHY_13/VGND _19_/VPWR sky130_fd_sc_hd__dfrbp_1
XFILLER_24_93 _24_/VGND _22_/VPWR sky130_fd_sc_hd__fill_2
X_24_ chanx_in_5_ chanx_out_5_ _24_/VGND _26_/VPWR sky130_fd_sc_hd__buf_2
XFILLER_1_53 _02_/VGND _05_/VPWR sky130_fd_sc_hd__decap_4
Xmem_bottom_ipin_1.sc_dff_compact_0_.sky130_fd_sc_hd__dfrbp_1 mem_bottom_ipin_0.sc_dff_compact_5_.sky130_fd_sc_hd__dfrbp_1/Q
+ mem_bottom_ipin_1.sc_dff_compact_0_.sky130_fd_sc_hd__dfrbp_1/Q mem_bottom_ipin_1.sc_dff_compact_0_.sky130_fd_sc_hd__dfrbp_1/Q_N
+ pReset clkbuf_3_1_0_prog_clk/X _06_/VGND _08_/VPWR sky130_fd_sc_hd__dfrbp_1
XANTENNA_mem_bottom_ipin_2.sc_dff_compact_5_.sky130_fd_sc_hd__dfrbp_1_D mem_bottom_ipin_2.sc_dff_compact_4_.sky130_fd_sc_hd__dfrbp_1/Q
+ _02_/VGND _02_/VPWR sky130_fd_sc_hd__diode_2
X_07_ _07_/HI bottom_grid_pin_12_ _02_/VGND _02_/VPWR sky130_fd_sc_hd__conb_1
XPHY_123 _26_/VGND _26_/VPWR sky130_fd_sc_hd__tapvpwrvgnd_1
XPHY_112 PHY_47/VGND PHY_45/VPWR sky130_fd_sc_hd__tapvpwrvgnd_1
XPHY_101 PHY_39/VGND PHY_37/VPWR sky130_fd_sc_hd__tapvpwrvgnd_1
XFILLER_26_28 _26_/VGND _26_/VPWR sky130_fd_sc_hd__decap_3
XPHY_3 _02_/VGND _05_/VPWR sky130_fd_sc_hd__decap_3
XFILLER_7_74 PHY_13/VGND _19_/VPWR sky130_fd_sc_hd__decap_8
XFILLER_7_85 PHY_13/VGND _19_/VPWR sky130_fd_sc_hd__fill_2
XFILLER_21_120 _13_/VGND PHY_45/VPWR sky130_fd_sc_hd__fill_2
XFILLER_12_19 _17_/VGND _17_/VPWR sky130_fd_sc_hd__decap_3
XFILLER_5_116 _08_/VGND PHY_13/VPWR sky130_fd_sc_hd__fill_2
XFILLER_4_64 _08_/VGND _08_/VPWR sky130_fd_sc_hd__decap_12
XFILLER_13_62 _17_/VGND _15_/VPWR sky130_fd_sc_hd__fill_2
XANTENNA_mem_bottom_ipin_0.sc_dff_compact_5_.sky130_fd_sc_hd__dfrbp_1_CLK clkbuf_3_1_0_prog_clk/X
+ PHY_13/VGND PHY_13/VPWR sky130_fd_sc_hd__diode_2
XFILLER_1_87 _02_/VGND _05_/VPWR sky130_fd_sc_hd__decap_12
X_23_ chanx_in_4_ chanx_out_4_ _02_/VGND _05_/VPWR sky130_fd_sc_hd__buf_2
XFILLER_19_148 PHY_39/VGND _13_/VPWR sky130_fd_sc_hd__fill_2
XFILLER_19_104 PHY_39/VGND _13_/VPWR sky130_fd_sc_hd__fill_2
XFILLER_19_50 PHY_39/VGND _13_/VPWR sky130_fd_sc_hd__fill_2
XANTENNA_mem_top_ipin_3.sc_dff_compact_0_.sky130_fd_sc_hd__dfrbp_1_RESET_B pReset
+ PHY_35/VGND PHY_33/VPWR sky130_fd_sc_hd__diode_2
XFILLER_25_3 _24_/VGND _26_/VPWR sky130_fd_sc_hd__decap_8
X_06_ _06_/HI bottom_grid_pin_14_ _06_/VGND _08_/VPWR sky130_fd_sc_hd__conb_1
XPHY_124 _26_/VGND _26_/VPWR sky130_fd_sc_hd__tapvpwrvgnd_1
XPHY_113 PHY_47/VGND PHY_45/VPWR sky130_fd_sc_hd__tapvpwrvgnd_1
XFILLER_21_62 _13_/VGND PHY_45/VPWR sky130_fd_sc_hd__decap_12
XFILLER_21_51 _13_/VGND PHY_45/VPWR sky130_fd_sc_hd__fill_2
XANTENNA_mem_top_ipin_5.sc_dff_compact_1_.sky130_fd_sc_hd__dfrbp_1_RESET_B pReset
+ PHY_39/VGND _13_/VPWR sky130_fd_sc_hd__diode_2
XPHY_102 PHY_39/VGND PHY_37/VPWR sky130_fd_sc_hd__tapvpwrvgnd_1
XPHY_4 _06_/VGND _05_/VPWR sky130_fd_sc_hd__decap_3
XFILLER_7_42 PHY_13/VGND _19_/VPWR sky130_fd_sc_hd__decap_8
XANTENNA_clkbuf_1_1_0_prog_clk_A clkbuf_0_prog_clk/X _17_/VGND _15_/VPWR sky130_fd_sc_hd__diode_2
XANTENNA_mem_top_ipin_7.sc_dff_compact_2_.sky130_fd_sc_hd__dfrbp_1_RESET_B pReset
+ PHY_13/VGND PHY_13/VPWR sky130_fd_sc_hd__diode_2
XFILLER_12_154 _17_/VGND _17_/VPWR sky130_fd_sc_hd__decap_6
XANTENNA_mem_top_ipin_0.sc_dff_compact_3_.sky130_fd_sc_hd__dfrbp_1_CLK clkbuf_3_5_0_prog_clk/X
+ PHY_23/VGND _17_/VPWR sky130_fd_sc_hd__diode_2
XFILLER_8_114 _19_/VGND _19_/VPWR sky130_fd_sc_hd__decap_4
XANTENNA_mem_top_ipin_2.sc_dff_compact_5_.sky130_fd_sc_hd__dfrbp_1_CLK clkbuf_3_3_0_prog_clk/X
+ PHY_35/VGND PHY_37/VPWR sky130_fd_sc_hd__diode_2
XANTENNA_mem_top_ipin_1.sc_dff_compact_4_.sky130_fd_sc_hd__dfrbp_1_CLK clkbuf_3_0_0_prog_clk/X
+ _19_/VGND _19_/VPWR sky130_fd_sc_hd__diode_2
XFILLER_4_32 _08_/VGND _08_/VPWR sky130_fd_sc_hd__fill_2
XFILLER_4_76 _08_/VGND _08_/VPWR sky130_fd_sc_hd__decap_12
Xclkbuf_3_1_0_prog_clk clkbuf_2_0_0_prog_clk/X clkbuf_3_1_0_prog_clk/X PHY_13/VGND
+ PHY_13/VPWR sky130_fd_sc_hd__clkbuf_1
Xmem_top_ipin_6.sc_dff_compact_1_.sky130_fd_sc_hd__dfrbp_1 mem_top_ipin_6.sc_dff_compact_0_.sky130_fd_sc_hd__dfrbp_1/Q
+ mem_top_ipin_6.sc_dff_compact_1_.sky130_fd_sc_hd__dfrbp_1/Q mem_top_ipin_6.sc_dff_compact_1_.sky130_fd_sc_hd__dfrbp_1/Q_N
+ pReset clkbuf_3_7_0_prog_clk/X PHY_39/VGND _13_/VPWR sky130_fd_sc_hd__dfrbp_1
XFILLER_13_96 _17_/VGND _15_/VPWR sky130_fd_sc_hd__fill_2
XFILLER_1_120 _02_/VGND _05_/VPWR sky130_fd_sc_hd__fill_2
XANTENNA_mem_bottom_ipin_0.sc_dff_compact_3_.sky130_fd_sc_hd__dfrbp_1_RESET_B pReset
+ _08_/VGND PHY_13/VPWR sky130_fd_sc_hd__diode_2
Xmem_top_ipin_3.sc_dff_compact_2_.sky130_fd_sc_hd__dfrbp_1 mem_top_ipin_3.sc_dff_compact_1_.sky130_fd_sc_hd__dfrbp_1/Q
+ mem_top_ipin_3.sc_dff_compact_3_.sky130_fd_sc_hd__dfrbp_1/D mem_top_ipin_3.sc_dff_compact_2_.sky130_fd_sc_hd__dfrbp_1/Q_N
+ pReset clkbuf_3_2_0_prog_clk/X _13_/VGND PHY_45/VPWR sky130_fd_sc_hd__dfrbp_1
XFILLER_1_8 _02_/VGND _05_/VPWR sky130_fd_sc_hd__fill_2
X_22_ chanx_in_3_ chanx_out_3_ _24_/VGND _22_/VPWR sky130_fd_sc_hd__buf_2
XFILLER_24_40 _24_/VGND _22_/VPWR sky130_fd_sc_hd__decap_3
XFILLER_1_99 _02_/VGND _05_/VPWR sky130_fd_sc_hd__decap_4
XANTENNA_mem_bottom_ipin_2.sc_dff_compact_4_.sky130_fd_sc_hd__dfrbp_1_RESET_B pReset