* NGSPICE file created from cbx_1__0_.ext - technology: sky130A

* Black-box entry subcircuit for sky130_fd_sc_hd__decap_12 abstract view
.subckt sky130_fd_sc_hd__decap_12 VGND VPWR
.ends

* Black-box entry subcircuit for sky130_fd_sc_hd__dfrbp_1 abstract view
.subckt sky130_fd_sc_hd__dfrbp_1 D Q Q_N RESET_B CLK VGND VPWR
.ends

* Black-box entry subcircuit for sky130_fd_sc_hd__fill_2 abstract view
.subckt sky130_fd_sc_hd__fill_2 VGND VPWR
.ends

* Black-box entry subcircuit for sky130_fd_sc_hd__decap_6 abstract view
.subckt sky130_fd_sc_hd__decap_6 VGND VPWR
.ends

* Black-box entry subcircuit for sky130_fd_sc_hd__diode_2 abstract view
.subckt sky130_fd_sc_hd__diode_2 DIODE VGND VPWR
.ends

* Black-box entry subcircuit for sky130_fd_sc_hd__clkbuf_1 abstract view
.subckt sky130_fd_sc_hd__clkbuf_1 A X VGND VPWR
.ends

* Black-box entry subcircuit for sky130_fd_sc_hd__decap_8 abstract view
.subckt sky130_fd_sc_hd__decap_8 VGND VPWR
.ends

* Black-box entry subcircuit for sky130_fd_sc_hd__fill_1 abstract view
.subckt sky130_fd_sc_hd__fill_1 VGND VPWR
.ends

* Black-box entry subcircuit for sky130_fd_sc_hd__decap_3 abstract view
.subckt sky130_fd_sc_hd__decap_3 VGND VPWR
.ends

* Black-box entry subcircuit for sky130_fd_sc_hd__decap_4 abstract view
.subckt sky130_fd_sc_hd__decap_4 VGND VPWR
.ends

* Black-box entry subcircuit for sky130_fd_sc_hd__buf_2 abstract view
.subckt sky130_fd_sc_hd__buf_2 A X VGND VPWR
.ends

* Black-box entry subcircuit for sky130_fd_sc_hd__tapvpwrvgnd_1 abstract view
.subckt sky130_fd_sc_hd__tapvpwrvgnd_1 VGND VPWR
.ends

* Black-box entry subcircuit for sky130_fd_sc_hd__conb_1 abstract view
.subckt sky130_fd_sc_hd__conb_1 HI LO VGND VPWR
.ends

* Black-box entry subcircuit for sky130_fd_sc_hd__clkbuf_16 abstract view
.subckt sky130_fd_sc_hd__clkbuf_16 A X VGND VPWR
.ends

.subckt cbx_1__0_ bottom_grid_pin_0_ bottom_grid_pin_10_ bottom_grid_pin_12_ bottom_grid_pin_14_
+ bottom_grid_pin_2_ bottom_grid_pin_4_ bottom_grid_pin_6_ bottom_grid_pin_8_ ccff_head
+ ccff_tail chanx_in_0_ chanx_in_10_ chanx_in_11_ chanx_in_12_ chanx_in_13_ chanx_in_14_
+ chanx_in_15_ chanx_in_16_ chanx_in_17_ chanx_in_1_ chanx_in_2_ chanx_in_3_ chanx_in_4_
+ chanx_in_5_ chanx_in_6_ chanx_in_7_ chanx_in_8_ chanx_in_9_ chanx_out_0_ chanx_out_10_
+ chanx_out_11_ chanx_out_12_ chanx_out_13_ chanx_out_14_ chanx_out_15_ chanx_out_16_
+ chanx_out_17_ chanx_out_1_ chanx_out_2_ chanx_out_3_ chanx_out_4_ chanx_out_5_ chanx_out_6_
+ chanx_out_7_ chanx_out_8_ chanx_out_9_ pReset prog_clk top_grid_pin_14_ top_grid_pin_2_
+ top_grid_pin_6_
XFILLER_26_63 _11_/VGND _11_/VPWR sky130_fd_sc_hd__decap_12
Xmem_bottom_ipin_2.sc_dff_compact_5_.sky130_fd_sc_hd__dfrbp_1 mem_bottom_ipin_2.sc_dff_compact_5_.sky130_fd_sc_hd__dfrbp_1/D
+ mem_top_ipin_0.sc_dff_compact_0_.sky130_fd_sc_hd__dfrbp_1/D mem_bottom_ipin_2.sc_dff_compact_5_.sky130_fd_sc_hd__dfrbp_1/Q_N
+ pReset clkbuf_3_4_0_prog_clk/X _00_/VGND _00_/VPWR sky130_fd_sc_hd__dfrbp_1
XFILLER_9_148 PHY_19/VGND PHY_21/VPWR sky130_fd_sc_hd__decap_12
XFILLER_3_45 _19_/VGND _24_/VPWR sky130_fd_sc_hd__fill_2
Xmem_top_ipin_0.sc_dff_compact_4_.sky130_fd_sc_hd__dfrbp_1 mem_top_ipin_0.sc_dff_compact_3_.sky130_fd_sc_hd__dfrbp_1/Q
+ mem_top_ipin_0.sc_dff_compact_4_.sky130_fd_sc_hd__dfrbp_1/Q mem_top_ipin_0.sc_dff_compact_4_.sky130_fd_sc_hd__dfrbp_1/Q_N
+ pReset clkbuf_3_4_0_prog_clk/X PHY_19/VGND PHY_21/VPWR sky130_fd_sc_hd__dfrbp_1
XFILLER_12_32 _00_/VGND _00_/VPWR sky130_fd_sc_hd__fill_2
XFILLER_10_103 PHY_23/VGND PHY_21/VPWR sky130_fd_sc_hd__fill_2
Xmem_bottom_ipin_0.sc_dff_compact_0_.sky130_fd_sc_hd__dfrbp_1 ccff_head mem_bottom_ipin_0.sc_dff_compact_1_.sky130_fd_sc_hd__dfrbp_1/D
+ mem_bottom_ipin_0.sc_dff_compact_0_.sky130_fd_sc_hd__dfrbp_1/Q_N pReset clkbuf_3_0_0_prog_clk/X
+ _25_/VGND _17_/VPWR sky130_fd_sc_hd__dfrbp_1
XFILLER_2_154 _19_/VGND _19_/VPWR sky130_fd_sc_hd__decap_6
XFILLER_9_66 PHY_19/VGND PHY_21/VPWR sky130_fd_sc_hd__fill_2
XANTENNA_clkbuf_2_1_0_prog_clk_A clkbuf_2_1_0_prog_clk/A PHY_35/VGND PHY_37/VPWR sky130_fd_sc_hd__diode_2
Xclkbuf_3_4_0_prog_clk clkbuf_2_2_0_prog_clk/X clkbuf_3_4_0_prog_clk/X _17_/VGND PHY_17/VPWR
+ sky130_fd_sc_hd__clkbuf_1
XANTENNA_mem_top_ipin_0.sc_dff_compact_2_.sky130_fd_sc_hd__dfrbp_1_D mem_top_ipin_0.sc_dff_compact_2_.sky130_fd_sc_hd__dfrbp_1/D
+ PHY_19/VGND PHY_21/VPWR sky130_fd_sc_hd__diode_2
XFILLER_20_32 _27_/VGND _27_/VPWR sky130_fd_sc_hd__fill_2
XFILLER_13_3 _00_/VGND _06_/VPWR sky130_fd_sc_hd__fill_2
XANTENNA_mem_top_ipin_0.sc_dff_compact_5_.sky130_fd_sc_hd__dfrbp_1_CLK clkbuf_3_4_0_prog_clk/X
+ _17_/VGND PHY_17/VPWR sky130_fd_sc_hd__diode_2
XFILLER_15_54 _06_/VGND PHY_33/VPWR sky130_fd_sc_hd__fill_2
XFILLER_16_131 PHY_35/VGND PHY_33/VPWR sky130_fd_sc_hd__decap_12
XFILLER_22_145 _20_/VGND _20_/VPWR sky130_fd_sc_hd__decap_8
XFILLER_22_134 _20_/VGND _20_/VPWR sky130_fd_sc_hd__fill_2
XFILLER_26_75 _11_/VGND _11_/VPWR sky130_fd_sc_hd__decap_12
XFILLER_13_123 _00_/VGND _06_/VPWR sky130_fd_sc_hd__fill_2
XFILLER_13_112 _00_/VGND _06_/VPWR sky130_fd_sc_hd__fill_2
XFILLER_9_116 PHY_19/VGND PHY_21/VPWR sky130_fd_sc_hd__fill_2
XANTENNA_mem_top_ipin_1.sc_dff_compact_0_.sky130_fd_sc_hd__dfrbp_1_D mem_top_ipin_0.sc_dff_compact_5_.sky130_fd_sc_hd__dfrbp_1/Q
+ _25_/VGND _17_/VPWR sky130_fd_sc_hd__diode_2
XFILLER_12_66 _00_/VGND _00_/VPWR sky130_fd_sc_hd__fill_2
XFILLER_12_11 _00_/VGND _00_/VPWR sky130_fd_sc_hd__fill_2
XFILLER_10_115 PHY_23/VGND PHY_21/VPWR sky130_fd_sc_hd__fill_2
XFILLER_5_152 _25_/VGND _17_/VPWR sky130_fd_sc_hd__decap_8
XANTENNA_mem_top_ipin_0.sc_dff_compact_5_.sky130_fd_sc_hd__dfrbp_1_D mem_top_ipin_0.sc_dff_compact_4_.sky130_fd_sc_hd__dfrbp_1/Q
+ _17_/VGND PHY_17/VPWR sky130_fd_sc_hd__diode_2
XFILLER_0_36 _16_/VGND _16_/VPWR sky130_fd_sc_hd__fill_2
XANTENNA_mem_bottom_ipin_1.sc_dff_compact_1_.sky130_fd_sc_hd__dfrbp_1_RESET_B pReset
+ _16_/VGND _16_/VPWR sky130_fd_sc_hd__diode_2
XFILLER_2_122 _19_/VGND _19_/VPWR sky130_fd_sc_hd__fill_1
XFILLER_2_133 _19_/VGND _19_/VPWR sky130_fd_sc_hd__fill_2
XFILLER_9_34 PHY_19/VGND PHY_21/VPWR sky130_fd_sc_hd__fill_1
XFILLER_9_78 PHY_19/VGND PHY_21/VPWR sky130_fd_sc_hd__decap_3
XANTENNA_mem_bottom_ipin_1.sc_dff_compact_0_.sky130_fd_sc_hd__dfrbp_1_CLK clkbuf_3_0_0_prog_clk/X
+ _19_/VGND _19_/VPWR sky130_fd_sc_hd__diode_2
XFILLER_18_76 PHY_39/VGND PHY_37/VPWR sky130_fd_sc_hd__fill_2
XFILLER_18_32 PHY_39/VGND PHY_37/VPWR sky130_fd_sc_hd__decap_12
XFILLER_18_21 PHY_39/VGND PHY_37/VPWR sky130_fd_sc_hd__fill_2
XANTENNA_mem_bottom_ipin_2.sc_dff_compact_1_.sky130_fd_sc_hd__dfrbp_1_CLK clkbuf_3_1_0_prog_clk/X
+ _25_/VGND _24_/VPWR sky130_fd_sc_hd__diode_2
XFILLER_20_44 _27_/VGND _27_/VPWR sky130_fd_sc_hd__decap_3
XFILLER_6_57 _17_/VGND _17_/VPWR sky130_fd_sc_hd__fill_2
XFILLER_15_66 _06_/VGND PHY_33/VPWR sky130_fd_sc_hd__decap_3
XANTENNA_mem_top_ipin_1.sc_dff_compact_3_.sky130_fd_sc_hd__dfrbp_1_D mem_top_ipin_1.sc_dff_compact_2_.sky130_fd_sc_hd__dfrbp_1/Q
+ _17_/VGND _17_/VPWR sky130_fd_sc_hd__diode_2
XFILLER_16_154 PHY_35/VGND PHY_33/VPWR sky130_fd_sc_hd__decap_6
XFILLER_16_143 PHY_35/VGND PHY_33/VPWR sky130_fd_sc_hd__decap_8
Xmem_top_ipin_5.sc_dff_compact_1_.sky130_fd_sc_hd__dfrbp_1 mem_top_ipin_5.sc_dff_compact_0_.sky130_fd_sc_hd__dfrbp_1/Q
+ mem_top_ipin_5.sc_dff_compact_1_.sky130_fd_sc_hd__dfrbp_1/Q mem_top_ipin_5.sc_dff_compact_1_.sky130_fd_sc_hd__dfrbp_1/Q_N
+ pReset clkbuf_3_2_0_prog_clk/X _06_/VGND _06_/VPWR sky130_fd_sc_hd__dfrbp_1
XFILLER_26_87 _11_/VGND _11_/VPWR sky130_fd_sc_hd__fill_1
XFILLER_26_32 _11_/VGND _11_/VPWR sky130_fd_sc_hd__fill_2
Xmem_top_ipin_2.sc_dff_compact_2_.sky130_fd_sc_hd__dfrbp_1 mem_top_ipin_2.sc_dff_compact_2_.sky130_fd_sc_hd__dfrbp_1/D
+ mem_top_ipin_2.sc_dff_compact_2_.sky130_fd_sc_hd__dfrbp_1/Q mem_top_ipin_2.sc_dff_compact_2_.sky130_fd_sc_hd__dfrbp_1/Q_N
+ pReset clkbuf_3_5_0_prog_clk/X _00_/VGND _06_/VPWR sky130_fd_sc_hd__dfrbp_1
XFILLER_12_89 _00_/VGND _00_/VPWR sky130_fd_sc_hd__decap_3
XFILLER_12_78 _00_/VGND _00_/VPWR sky130_fd_sc_hd__fill_1
XANTENNA_mem_top_ipin_3.sc_dff_compact_0_.sky130_fd_sc_hd__dfrbp_1_CLK clkbuf_3_7_0_prog_clk/X
+ PHY_39/VGND _27_/VPWR sky130_fd_sc_hd__diode_2
XANTENNA_mem_top_ipin_4.sc_dff_compact_1_.sky130_fd_sc_hd__dfrbp_1_CLK clkbuf_3_3_0_prog_clk/X
+ PHY_35/VGND PHY_33/VPWR sky130_fd_sc_hd__diode_2
XFILLER_5_120 _25_/VGND _17_/VPWR sky130_fd_sc_hd__fill_2
XANTENNA_mem_top_ipin_5.sc_dff_compact_2_.sky130_fd_sc_hd__dfrbp_1_CLK clkbuf_3_2_0_prog_clk/X
+ _00_/VGND _00_/VPWR sky130_fd_sc_hd__diode_2
XANTENNA_mem_top_ipin_2.sc_dff_compact_1_.sky130_fd_sc_hd__dfrbp_1_D mem_top_ipin_2.sc_dff_compact_0_.sky130_fd_sc_hd__dfrbp_1/Q
+ PHY_23/VGND _00_/VPWR sky130_fd_sc_hd__diode_2
XANTENNA_mem_top_ipin_7.sc_dff_compact_4_.sky130_fd_sc_hd__dfrbp_1_CLK clkbuf_3_7_0_prog_clk/X
+ _14_/VGND _11_/VPWR sky130_fd_sc_hd__diode_2
XFILLER_23_66 _20_/VGND _15_/VPWR sky130_fd_sc_hd__fill_2
XFILLER_23_44 _20_/VGND _15_/VPWR sky130_fd_sc_hd__decap_12
XANTENNA_mem_top_ipin_6.sc_dff_compact_3_.sky130_fd_sc_hd__dfrbp_1_CLK clkbuf_3_3_0_prog_clk/X
+ PHY_39/VGND PHY_37/VPWR sky130_fd_sc_hd__diode_2
XFILLER_0_15 _16_/VGND _16_/VPWR sky130_fd_sc_hd__decap_4
XFILLER_2_145 _19_/VGND _19_/VPWR sky130_fd_sc_hd__decap_8
XFILLER_3_3 _19_/VGND _24_/VPWR sky130_fd_sc_hd__decap_4
XFILLER_18_44 PHY_39/VGND PHY_37/VPWR sky130_fd_sc_hd__fill_1
XFILLER_20_78 _27_/VGND _27_/VPWR sky130_fd_sc_hd__fill_1
XFILLER_20_12 _27_/VGND _27_/VPWR sky130_fd_sc_hd__fill_2
XANTENNA_clkbuf_1_0_0_prog_clk_A clkbuf_0_prog_clk/X _00_/VGND _06_/VPWR sky130_fd_sc_hd__diode_2
XFILLER_1_91 _16_/VGND _19_/VPWR sky130_fd_sc_hd__fill_2
XANTENNA_mem_top_ipin_7.sc_dff_compact_0_.sky130_fd_sc_hd__dfrbp_1_RESET_B pReset
+ _27_/VGND _20_/VPWR sky130_fd_sc_hd__diode_2
XFILLER_19_152 PHY_39/VGND _27_/VPWR sky130_fd_sc_hd__decap_8
XFILLER_25_111 _14_/VGND _11_/VPWR sky130_fd_sc_hd__decap_8
XFILLER_22_103 _20_/VGND _20_/VPWR sky130_fd_sc_hd__decap_4
Xclkbuf_2_1_0_prog_clk clkbuf_2_1_0_prog_clk/A clkbuf_3_3_0_prog_clk/A PHY_35/VGND
+ PHY_37/VPWR sky130_fd_sc_hd__clkbuf_1
XANTENNA_mem_top_ipin_2.sc_dff_compact_4_.sky130_fd_sc_hd__dfrbp_1_D mem_top_ipin_2.sc_dff_compact_3_.sky130_fd_sc_hd__dfrbp_1/Q
+ _06_/VGND PHY_33/VPWR sky130_fd_sc_hd__diode_2
XFILLER_3_59 _19_/VGND _24_/VPWR sky130_fd_sc_hd__fill_2
XFILLER_12_57 _00_/VGND _00_/VPWR sky130_fd_sc_hd__decap_6
XANTENNA_mem_bottom_ipin_0.sc_dff_compact_1_.sky130_fd_sc_hd__dfrbp_1_RESET_B pReset
+ _17_/VGND _17_/VPWR sky130_fd_sc_hd__diode_2
XANTENNA_mem_bottom_ipin_2.sc_dff_compact_2_.sky130_fd_sc_hd__dfrbp_1_RESET_B pReset
+ _16_/VGND _19_/VPWR sky130_fd_sc_hd__diode_2
XFILLER_23_89 _20_/VGND _15_/VPWR sky130_fd_sc_hd__fill_2
XFILLER_23_56 _20_/VGND _15_/VPWR sky130_fd_sc_hd__fill_1
XANTENNA__12__A chanx_in_10_ PHY_39/VGND _27_/VPWR sky130_fd_sc_hd__diode_2
XFILLER_0_27 _16_/VGND _16_/VPWR sky130_fd_sc_hd__decap_4
XFILLER_18_12 PHY_39/VGND PHY_37/VPWR sky130_fd_sc_hd__fill_2
XANTENNA_mem_top_ipin_3.sc_dff_compact_2_.sky130_fd_sc_hd__dfrbp_1_D mem_top_ipin_3.sc_dff_compact_1_.sky130_fd_sc_hd__dfrbp_1/Q
+ PHY_35/VGND PHY_37/VPWR sky130_fd_sc_hd__diode_2
Xclkbuf_3_3_0_prog_clk clkbuf_3_3_0_prog_clk/A clkbuf_3_3_0_prog_clk/X PHY_39/VGND
+ _27_/VPWR sky130_fd_sc_hd__clkbuf_1
XFILLER_6_15 _17_/VGND _17_/VPWR sky130_fd_sc_hd__decap_4
XFILLER_6_26 _17_/VGND _17_/VPWR sky130_fd_sc_hd__decap_4
XFILLER_20_7 _27_/VGND _27_/VPWR sky130_fd_sc_hd__fill_1
XFILLER_25_134 _14_/VGND _11_/VPWR sky130_fd_sc_hd__decap_4
XFILLER_25_123 _14_/VGND _11_/VPWR sky130_fd_sc_hd__fill_2
Xmem_top_ipin_6.sc_dff_compact_5_.sky130_fd_sc_hd__dfrbp_1 mem_top_ipin_6.sc_dff_compact_4_.sky130_fd_sc_hd__dfrbp_1/Q
+ mem_top_ipin_6.sc_dff_compact_5_.sky130_fd_sc_hd__dfrbp_1/Q mem_top_ipin_6.sc_dff_compact_5_.sky130_fd_sc_hd__dfrbp_1/Q_N
+ pReset clkbuf_3_3_0_prog_clk/X _20_/VGND _20_/VPWR sky130_fd_sc_hd__dfrbp_1
XANTENNA__20__A chanx_in_1_ _27_/VGND _20_/VPWR sky130_fd_sc_hd__diode_2
XFILLER_16_123 PHY_35/VGND PHY_33/VPWR sky130_fd_sc_hd__fill_2
XFILLER_11_3 PHY_23/VGND _00_/VPWR sky130_fd_sc_hd__fill_2
XANTENNA__15__A chanx_in_13_ _20_/VGND _20_/VPWR sky130_fd_sc_hd__diode_2
XANTENNA_mem_top_ipin_4.sc_dff_compact_0_.sky130_fd_sc_hd__dfrbp_1_D mem_top_ipin_3.sc_dff_compact_5_.sky130_fd_sc_hd__dfrbp_1/Q
+ _06_/VGND PHY_33/VPWR sky130_fd_sc_hd__diode_2
XFILLER_13_148 _00_/VGND _06_/VPWR sky130_fd_sc_hd__decap_12
XFILLER_3_16 _19_/VGND _24_/VPWR sky130_fd_sc_hd__fill_2
XFILLER_3_49 _19_/VGND _24_/VPWR sky130_fd_sc_hd__fill_2
XFILLER_9_108 PHY_19/VGND PHY_21/VPWR sky130_fd_sc_hd__fill_2
XFILLER_10_107 PHY_23/VGND PHY_21/VPWR sky130_fd_sc_hd__decap_8
XANTENNA_mem_top_ipin_3.sc_dff_compact_5_.sky130_fd_sc_hd__dfrbp_1_D mem_top_ipin_3.sc_dff_compact_4_.sky130_fd_sc_hd__dfrbp_1/Q
+ PHY_39/VGND PHY_37/VPWR sky130_fd_sc_hd__diode_2
Xmem_top_ipin_4.sc_dff_compact_0_.sky130_fd_sc_hd__dfrbp_1 mem_top_ipin_3.sc_dff_compact_5_.sky130_fd_sc_hd__dfrbp_1/Q
+ mem_top_ipin_4.sc_dff_compact_1_.sky130_fd_sc_hd__dfrbp_1/D mem_top_ipin_4.sc_dff_compact_0_.sky130_fd_sc_hd__dfrbp_1/Q_N
+ pReset clkbuf_3_3_0_prog_clk/X PHY_35/VGND PHY_33/VPWR sky130_fd_sc_hd__dfrbp_1
XFILLER_2_125 _19_/VGND _19_/VPWR sky130_fd_sc_hd__decap_4
Xmem_top_ipin_1.sc_dff_compact_1_.sky130_fd_sc_hd__dfrbp_1 mem_top_ipin_1.sc_dff_compact_1_.sky130_fd_sc_hd__dfrbp_1/D
+ mem_top_ipin_1.sc_dff_compact_1_.sky130_fd_sc_hd__dfrbp_1/Q mem_top_ipin_1.sc_dff_compact_1_.sky130_fd_sc_hd__dfrbp_1/Q_N
+ pReset clkbuf_3_4_0_prog_clk/X _17_/VGND _17_/VPWR sky130_fd_sc_hd__dfrbp_1
XFILLER_9_37 PHY_19/VGND PHY_21/VPWR sky130_fd_sc_hd__decap_12
XFILLER_9_59 PHY_19/VGND PHY_21/VPWR sky130_fd_sc_hd__fill_2
XANTENNA_mem_top_ipin_6.sc_dff_compact_0_.sky130_fd_sc_hd__dfrbp_1_RESET_B pReset
+ _20_/VGND _15_/VPWR sky130_fd_sc_hd__diode_2
Xmem_bottom_ipin_0.sc_dff_compact_3_.sky130_fd_sc_hd__dfrbp_1 mem_bottom_ipin_0.sc_dff_compact_2_.sky130_fd_sc_hd__dfrbp_1/Q
+ mem_bottom_ipin_0.sc_dff_compact_3_.sky130_fd_sc_hd__dfrbp_1/Q mem_bottom_ipin_0.sc_dff_compact_3_.sky130_fd_sc_hd__dfrbp_1/Q_N
+ pReset clkbuf_3_1_0_prog_clk/X _17_/VGND _17_/VPWR sky130_fd_sc_hd__dfrbp_1
XANTENNA__23__A chanx_in_4_ _16_/VGND _19_/VPWR sky130_fd_sc_hd__diode_2
X_28_ chanx_in_9_ chanx_out_9_ _16_/VGND _16_/VPWR sky130_fd_sc_hd__buf_2
XANTENNA_mem_top_ipin_4.sc_dff_compact_3_.sky130_fd_sc_hd__dfrbp_1_D mem_top_ipin_4.sc_dff_compact_2_.sky130_fd_sc_hd__dfrbp_1/Q
+ _27_/VGND _20_/VPWR sky130_fd_sc_hd__diode_2
XFILLER_20_36 _27_/VGND _27_/VPWR sky130_fd_sc_hd__decap_8
XANTENNA__18__A chanx_in_16_ _16_/VGND _19_/VPWR sky130_fd_sc_hd__diode_2
XFILLER_25_146 _14_/VGND _11_/VPWR sky130_fd_sc_hd__fill_2
XFILLER_15_58 _06_/VGND PHY_33/VPWR sky130_fd_sc_hd__decap_3
XFILLER_22_138 _20_/VGND _20_/VPWR sky130_fd_sc_hd__decap_3
XFILLER_7_92 _17_/VGND PHY_17/VPWR sky130_fd_sc_hd__fill_2
XFILLER_13_116 _00_/VGND _06_/VPWR sky130_fd_sc_hd__fill_2
XFILLER_16_90 PHY_35/VGND PHY_33/VPWR sky130_fd_sc_hd__fill_2
XFILLER_8_131 PHY_19/VGND PHY_17/VPWR sky130_fd_sc_hd__fill_2
XFILLER_12_15 _00_/VGND _00_/VPWR sky130_fd_sc_hd__decap_12
XFILLER_10_119 PHY_23/VGND PHY_21/VPWR sky130_fd_sc_hd__fill_2
XANTENNA__26__A chanx_in_7_ _16_/VGND _16_/VPWR sky130_fd_sc_hd__diode_2
XANTENNA_mem_top_ipin_5.sc_dff_compact_1_.sky130_fd_sc_hd__dfrbp_1_D mem_top_ipin_5.sc_dff_compact_0_.sky130_fd_sc_hd__dfrbp_1/Q
+ _00_/VGND _06_/VPWR sky130_fd_sc_hd__diode_2
XFILLER_5_123 _25_/VGND _17_/VPWR sky130_fd_sc_hd__fill_2
XFILLER_4_93 _25_/VGND _24_/VPWR sky130_fd_sc_hd__fill_2
XFILLER_2_137 _19_/VGND _19_/VPWR sky130_fd_sc_hd__decap_4
XFILLER_9_49 PHY_19/VGND PHY_21/VPWR sky130_fd_sc_hd__decap_8
XANTENNA_mem_top_ipin_1.sc_dff_compact_5_.sky130_fd_sc_hd__dfrbp_1_CLK clkbuf_3_5_0_prog_clk/X
+ PHY_23/VGND PHY_21/VPWR sky130_fd_sc_hd__diode_2
XANTENNA_mem_top_ipin_0.sc_dff_compact_4_.sky130_fd_sc_hd__dfrbp_1_CLK clkbuf_3_4_0_prog_clk/X
+ PHY_23/VGND PHY_21/VPWR sky130_fd_sc_hd__diode_2
XANTENNA_clkbuf_3_3_0_prog_clk_A clkbuf_3_3_0_prog_clk/A _27_/VGND _27_/VPWR sky130_fd_sc_hd__diode_2
XFILLER_18_47 PHY_39/VGND PHY_37/VPWR sky130_fd_sc_hd__fill_2
XFILLER_18_25 PHY_39/VGND PHY_37/VPWR sky130_fd_sc_hd__decap_6
XFILLER_1_3 _16_/VGND _19_/VPWR sky130_fd_sc_hd__decap_4
XFILLER_24_90 _14_/VGND _15_/VPWR sky130_fd_sc_hd__fill_2
X_27_ chanx_in_8_ chanx_out_8_ _27_/VGND _27_/VPWR sky130_fd_sc_hd__buf_2
XFILLER_19_100 PHY_39/VGND _27_/VPWR sky130_fd_sc_hd__fill_2
XANTENNA_mem_bottom_ipin_0.sc_dff_compact_0_.sky130_fd_sc_hd__dfrbp_1_D ccff_head
+ _25_/VGND _24_/VPWR sky130_fd_sc_hd__diode_2
XFILLER_25_158 _14_/VGND _11_/VPWR sky130_fd_sc_hd__fill_2
XPHY_120 _14_/VGND _11_/VPWR sky130_fd_sc_hd__tapvpwrvgnd_1
XANTENNA_mem_top_ipin_5.sc_dff_compact_4_.sky130_fd_sc_hd__dfrbp_1_D mem_top_ipin_5.sc_dff_compact_4_.sky130_fd_sc_hd__dfrbp_1/D
+ PHY_39/VGND PHY_37/VPWR sky130_fd_sc_hd__diode_2
XPHY_0 _16_/VGND _16_/VPWR sky130_fd_sc_hd__decap_3
XFILLER_26_36 _11_/VGND _11_/VPWR sky130_fd_sc_hd__decap_12
Xmem_top_ipin_5.sc_dff_compact_4_.sky130_fd_sc_hd__dfrbp_1 mem_top_ipin_5.sc_dff_compact_4_.sky130_fd_sc_hd__dfrbp_1/D
+ mem_top_ipin_5.sc_dff_compact_5_.sky130_fd_sc_hd__dfrbp_1/D mem_top_ipin_5.sc_dff_compact_4_.sky130_fd_sc_hd__dfrbp_1/Q_N
+ pReset clkbuf_3_2_0_prog_clk/X PHY_35/VGND PHY_37/VPWR sky130_fd_sc_hd__dfrbp_1
XFILLER_8_154 PHY_19/VGND PHY_17/VPWR sky130_fd_sc_hd__decap_6
XANTENNA_mem_bottom_ipin_2.sc_dff_compact_0_.sky130_fd_sc_hd__dfrbp_1_CLK clkbuf_3_7_0_prog_clk/X
+ _27_/VGND _27_/VPWR sky130_fd_sc_hd__diode_2
Xmem_top_ipin_2.sc_dff_compact_5_.sky130_fd_sc_hd__dfrbp_1 mem_top_ipin_2.sc_dff_compact_5_.sky130_fd_sc_hd__dfrbp_1/D
+ mem_top_ipin_3.sc_dff_compact_0_.sky130_fd_sc_hd__dfrbp_1/D mem_top_ipin_2.sc_dff_compact_5_.sky130_fd_sc_hd__dfrbp_1/Q_N
+ pReset clkbuf_3_7_0_prog_clk/X PHY_39/VGND _27_/VPWR sky130_fd_sc_hd__dfrbp_1
XANTENNA_mem_top_ipin_5.sc_dff_compact_0_.sky130_fd_sc_hd__dfrbp_1_RESET_B pReset
+ PHY_23/VGND PHY_21/VPWR sky130_fd_sc_hd__diode_2
Xclkbuf_2_0_0_prog_clk clkbuf_2_1_0_prog_clk/A clkbuf_2_0_0_prog_clk/X PHY_19/VGND
+ PHY_17/VPWR sky130_fd_sc_hd__clkbuf_1
XFILLER_23_59 _20_/VGND _15_/VPWR sky130_fd_sc_hd__fill_2
XFILLER_23_15 _20_/VGND _15_/VPWR sky130_fd_sc_hd__fill_2
XFILLER_4_61 _25_/VGND _24_/VPWR sky130_fd_sc_hd__fill_1
XANTENNA_mem_top_ipin_7.sc_dff_compact_1_.sky130_fd_sc_hd__dfrbp_1_RESET_B pReset
+ _14_/VGND _11_/VPWR sky130_fd_sc_hd__diode_2
XFILLER_3_7 _19_/VGND _24_/VPWR sky130_fd_sc_hd__fill_1
XFILLER_9_28 PHY_19/VGND PHY_21/VPWR sky130_fd_sc_hd__decap_6
XANTENNA_mem_top_ipin_6.sc_dff_compact_2_.sky130_fd_sc_hd__dfrbp_1_D mem_top_ipin_6.sc_dff_compact_1_.sky130_fd_sc_hd__dfrbp_1/Q
+ _27_/VGND _20_/VPWR sky130_fd_sc_hd__diode_2
XANTENNA_mem_bottom_ipin_0.sc_dff_compact_3_.sky130_fd_sc_hd__dfrbp_1_D mem_bottom_ipin_0.sc_dff_compact_2_.sky130_fd_sc_hd__dfrbp_1/Q
+ _25_/VGND _17_/VPWR sky130_fd_sc_hd__diode_2
Xmem_bottom_ipin_2.sc_dff_compact_1_.sky130_fd_sc_hd__dfrbp_1 mem_bottom_ipin_2.sc_dff_compact_0_.sky130_fd_sc_hd__dfrbp_1/Q
+ mem_bottom_ipin_2.sc_dff_compact_1_.sky130_fd_sc_hd__dfrbp_1/Q mem_bottom_ipin_2.sc_dff_compact_1_.sky130_fd_sc_hd__dfrbp_1/Q_N
+ pReset clkbuf_3_1_0_prog_clk/X _19_/VGND _24_/VPWR sky130_fd_sc_hd__dfrbp_1
Xmem_top_ipin_0.sc_dff_compact_0_.sky130_fd_sc_hd__dfrbp_1 mem_top_ipin_0.sc_dff_compact_0_.sky130_fd_sc_hd__dfrbp_1/D
+ mem_top_ipin_0.sc_dff_compact_1_.sky130_fd_sc_hd__dfrbp_1/D mem_top_ipin_0.sc_dff_compact_0_.sky130_fd_sc_hd__dfrbp_1/Q_N
+ pReset clkbuf_3_5_0_prog_clk/X _16_/VGND _19_/VPWR sky130_fd_sc_hd__dfrbp_1
XFILLER_20_49 _27_/VGND _27_/VPWR sky130_fd_sc_hd__fill_2
XFILLER_20_16 _27_/VGND _27_/VPWR sky130_fd_sc_hd__fill_2
XFILLER_1_62 _16_/VGND _19_/VPWR sky130_fd_sc_hd__fill_2
X_26_ chanx_in_7_ chanx_out_7_ _19_/VGND _19_/VPWR sky130_fd_sc_hd__buf_2
XFILLER_19_123 PHY_39/VGND _27_/VPWR sky130_fd_sc_hd__fill_2
XFILLER_19_112 PHY_39/VGND _27_/VPWR sky130_fd_sc_hd__decap_3
XFILLER_10_93 PHY_23/VGND PHY_21/VPWR sky130_fd_sc_hd__fill_2
XFILLER_10_60 PHY_23/VGND PHY_21/VPWR sky130_fd_sc_hd__fill_1
X_09_ _09_/HI bottom_grid_pin_0_ _19_/VGND _24_/VPWR sky130_fd_sc_hd__conb_1
XANTENNA_mem_bottom_ipin_0.sc_dff_compact_2_.sky130_fd_sc_hd__dfrbp_1_RESET_B pReset
+ PHY_19/VGND PHY_17/VPWR sky130_fd_sc_hd__diode_2
XPHY_121 _11_/VGND _11_/VPWR sky130_fd_sc_hd__tapvpwrvgnd_1
XPHY_110 _27_/VGND _20_/VPWR sky130_fd_sc_hd__tapvpwrvgnd_1
XFILLER_21_70 _27_/VGND _20_/VPWR sky130_fd_sc_hd__decap_4
XANTENNA_mem_top_ipin_7.sc_dff_compact_0_.sky130_fd_sc_hd__dfrbp_1_D mem_top_ipin_6.sc_dff_compact_5_.sky130_fd_sc_hd__dfrbp_1/Q
+ _27_/VGND _27_/VPWR sky130_fd_sc_hd__diode_2
XANTENNA_mem_top_ipin_4.sc_dff_compact_0_.sky130_fd_sc_hd__dfrbp_1_CLK clkbuf_3_3_0_prog_clk/X
+ _06_/VGND PHY_33/VPWR sky130_fd_sc_hd__diode_2
XANTENNA_mem_top_ipin_5.sc_dff_compact_1_.sky130_fd_sc_hd__dfrbp_1_CLK clkbuf_3_2_0_prog_clk/X
+ _00_/VGND _00_/VPWR sky130_fd_sc_hd__diode_2
XPHY_1 _16_/VGND _16_/VPWR sky130_fd_sc_hd__decap_3
XANTENNA_mem_bottom_ipin_2.sc_dff_compact_3_.sky130_fd_sc_hd__dfrbp_1_RESET_B pReset
+ _16_/VGND _19_/VPWR sky130_fd_sc_hd__diode_2
XANTENNA_mem_bottom_ipin_1.sc_dff_compact_1_.sky130_fd_sc_hd__dfrbp_1_D mem_bottom_ipin_1.sc_dff_compact_1_.sky130_fd_sc_hd__dfrbp_1/D
+ _16_/VGND _16_/VPWR sky130_fd_sc_hd__diode_2
XFILLER_26_48 _11_/VGND _11_/VPWR sky130_fd_sc_hd__decap_12
XFILLER_26_15 _11_/VGND _11_/VPWR sky130_fd_sc_hd__decap_12
XANTENNA_mem_top_ipin_6.sc_dff_compact_2_.sky130_fd_sc_hd__dfrbp_1_CLK clkbuf_3_2_0_prog_clk/X
+ _27_/VGND _27_/VPWR sky130_fd_sc_hd__diode_2
Xclkbuf_3_2_0_prog_clk clkbuf_3_3_0_prog_clk/A clkbuf_3_2_0_prog_clk/X PHY_39/VGND
+ PHY_37/VPWR sky130_fd_sc_hd__clkbuf_1
XANTENNA_mem_top_ipin_7.sc_dff_compact_3_.sky130_fd_sc_hd__dfrbp_1_CLK clkbuf_3_7_0_prog_clk/X
+ _27_/VGND _27_/VPWR sky130_fd_sc_hd__diode_2
XANTENNA_mem_top_ipin_6.sc_dff_compact_5_.sky130_fd_sc_hd__dfrbp_1_D mem_top_ipin_6.sc_dff_compact_4_.sky130_fd_sc_hd__dfrbp_1/Q
+ _27_/VGND _20_/VPWR sky130_fd_sc_hd__diode_2
XFILLER_5_114 _25_/VGND _17_/VPWR sky130_fd_sc_hd__decap_4
XFILLER_18_16 PHY_39/VGND PHY_37/VPWR sky130_fd_sc_hd__fill_2
XANTENNA_mem_top_ipin_7.sc_dff_compact_3_.sky130_fd_sc_hd__dfrbp_1_D mem_top_ipin_7.sc_dff_compact_2_.sky130_fd_sc_hd__dfrbp_1/Q
+ _27_/VGND _27_/VPWR sky130_fd_sc_hd__diode_2
XFILLER_20_28 _27_/VGND _27_/VPWR sky130_fd_sc_hd__decap_3
XFILLER_1_52 _16_/VGND _19_/VPWR sky130_fd_sc_hd__fill_1
X_25_ chanx_in_6_ chanx_out_6_ _25_/VGND _24_/VPWR sky130_fd_sc_hd__buf_2
X_08_ _08_/HI bottom_grid_pin_10_ _14_/VGND _11_/VPWR sky130_fd_sc_hd__conb_1
XFILLER_19_92 PHY_39/VGND _27_/VPWR sky130_fd_sc_hd__fill_2
XANTENNA_clkbuf_2_2_0_prog_clk_A clkbuf_2_3_0_prog_clk/A PHY_23/VGND PHY_21/VPWR sky130_fd_sc_hd__diode_2
XFILLER_25_127 _14_/VGND _11_/VPWR sky130_fd_sc_hd__decap_4
XPHY_100 PHY_35/VGND PHY_37/VPWR sky130_fd_sc_hd__tapvpwrvgnd_1
XFILLER_16_127 PHY_35/VGND PHY_33/VPWR sky130_fd_sc_hd__fill_2
XPHY_122 _11_/VGND _11_/VPWR sky130_fd_sc_hd__tapvpwrvgnd_1
XPHY_111 _20_/VGND _20_/VPWR sky130_fd_sc_hd__tapvpwrvgnd_1
XPHY_2 _16_/VGND _19_/VPWR sky130_fd_sc_hd__decap_3
XFILLER_26_27 _11_/VGND _11_/VPWR sky130_fd_sc_hd__decap_4
XFILLER_21_152 _27_/VGND _20_/VPWR sky130_fd_sc_hd__decap_8
XANTENNA_mem_top_ipin_4.sc_dff_compact_0_.sky130_fd_sc_hd__dfrbp_1_RESET_B pReset
+ _06_/VGND PHY_33/VPWR sky130_fd_sc_hd__diode_2
XFILLER_7_62 _17_/VGND PHY_17/VPWR sky130_fd_sc_hd__fill_2
XFILLER_16_93 PHY_35/VGND PHY_33/VPWR sky130_fd_sc_hd__fill_2
XFILLER_12_141 _00_/VGND _00_/VPWR sky130_fd_sc_hd__fill_1
XFILLER_8_123 PHY_19/VGND PHY_17/VPWR sky130_fd_sc_hd__fill_2
XANTENNA_mem_top_ipin_6.sc_dff_compact_1_.sky130_fd_sc_hd__dfrbp_1_RESET_B pReset
+ _14_/VGND _11_/VPWR sky130_fd_sc_hd__diode_2
Xmem_top_ipin_7.sc_dff_compact_2_.sky130_fd_sc_hd__dfrbp_1 mem_top_ipin_7.sc_dff_compact_1_.sky130_fd_sc_hd__dfrbp_1/Q
+ mem_top_ipin_7.sc_dff_compact_2_.sky130_fd_sc_hd__dfrbp_1/Q mem_top_ipin_7.sc_dff_compact_2_.sky130_fd_sc_hd__dfrbp_1/Q_N
+ pReset clkbuf_3_6_0_prog_clk/X _20_/VGND _15_/VPWR sky130_fd_sc_hd__dfrbp_1
XFILLER_12_29 _00_/VGND _00_/VPWR sky130_fd_sc_hd__fill_2
XANTENNA_mem_bottom_ipin_2.sc_dff_compact_2_.sky130_fd_sc_hd__dfrbp_1_D mem_bottom_ipin_2.sc_dff_compact_1_.sky130_fd_sc_hd__dfrbp_1/Q
+ _16_/VGND _16_/VPWR sky130_fd_sc_hd__diode_2
XFILLER_5_148 _25_/VGND _17_/VPWR sky130_fd_sc_hd__fill_2
Xmem_top_ipin_4.sc_dff_compact_3_.sky130_fd_sc_hd__dfrbp_1 mem_top_ipin_4.sc_dff_compact_2_.sky130_fd_sc_hd__dfrbp_1/Q
+ mem_top_ipin_4.sc_dff_compact_3_.sky130_fd_sc_hd__dfrbp_1/Q mem_top_ipin_4.sc_dff_compact_3_.sky130_fd_sc_hd__dfrbp_1/Q_N
+ pReset clkbuf_3_3_0_prog_clk/X PHY_39/VGND _27_/VPWR sky130_fd_sc_hd__dfrbp_1
XFILLER_2_118 _19_/VGND _19_/VPWR sky130_fd_sc_hd__decap_4
XFILLER_13_94 _00_/VGND _06_/VPWR sky130_fd_sc_hd__fill_2
XFILLER_13_50 _00_/VGND _06_/VPWR sky130_fd_sc_hd__decap_3
Xmem_top_ipin_1.sc_dff_compact_4_.sky130_fd_sc_hd__dfrbp_1 mem_top_ipin_1.sc_dff_compact_4_.sky130_fd_sc_hd__dfrbp_1/D
+ mem_top_ipin_1.sc_dff_compact_5_.sky130_fd_sc_hd__dfrbp_1/D mem_top_ipin_1.sc_dff_compact_4_.sky130_fd_sc_hd__dfrbp_1/Q_N
+ pReset clkbuf_3_5_0_prog_clk/X _17_/VGND PHY_17/VPWR sky130_fd_sc_hd__dfrbp_1
XFILLER_24_93 _14_/VGND _15_/VPWR sky130_fd_sc_hd__decap_8
XFILLER_1_97 _16_/VGND _19_/VPWR sky130_fd_sc_hd__fill_2
X_24_ chanx_in_5_ chanx_out_5_ _25_/VGND _24_/VPWR sky130_fd_sc_hd__buf_2
XFILLER_10_84 PHY_23/VGND PHY_21/VPWR sky130_fd_sc_hd__fill_2
Xmem_bottom_ipin_1.sc_dff_compact_0_.sky130_fd_sc_hd__dfrbp_1 mem_bottom_ipin_0.sc_dff_compact_5_.sky130_fd_sc_hd__dfrbp_1/Q
+ mem_bottom_ipin_1.sc_dff_compact_1_.sky130_fd_sc_hd__dfrbp_1/D mem_bottom_ipin_1.sc_dff_compact_0_.sky130_fd_sc_hd__dfrbp_1/Q_N
+ pReset clkbuf_3_0_0_prog_clk/X _16_/VGND _19_/VPWR sky130_fd_sc_hd__dfrbp_1
X_07_ _07_/HI bottom_grid_pin_12_ _14_/VGND _15_/VPWR sky130_fd_sc_hd__conb_1
XANTENNA_mem_bottom_ipin_2.sc_dff_compact_5_.sky130_fd_sc_hd__dfrbp_1_D mem_bottom_ipin_2.sc_dff_compact_5_.sky130_fd_sc_hd__dfrbp_1/D
+ PHY_23/VGND _00_/VPWR sky130_fd_sc_hd__diode_2
XPHY_123 _11_/VGND _11_/VPWR sky130_fd_sc_hd__tapvpwrvgnd_1
XPHY_112 _20_/VGND _20_/VPWR sky130_fd_sc_hd__tapvpwrvgnd_1
XPHY_101 PHY_39/VGND PHY_37/VPWR sky130_fd_sc_hd__tapvpwrvgnd_1
XPHY_3 _16_/VGND _19_/VPWR sky130_fd_sc_hd__decap_3
XFILLER_7_41 _17_/VGND PHY_17/VPWR sky130_fd_sc_hd__fill_2
XFILLER_7_96 _17_/VGND PHY_17/VPWR sky130_fd_sc_hd__fill_2
XFILLER_21_120 _27_/VGND _20_/VPWR sky130_fd_sc_hd__fill_2
XFILLER_16_83 PHY_35/VGND PHY_33/VPWR sky130_fd_sc_hd__decap_4
XFILLER_8_135 PHY_19/VGND PHY_17/VPWR sky130_fd_sc_hd__decap_12
XFILLER_4_64 _25_/VGND _24_/VPWR sky130_fd_sc_hd__decap_12
XFILLER_4_97 _25_/VGND _24_/VPWR sky130_fd_sc_hd__fill_2
XFILLER_13_62 _00_/VGND _06_/VPWR sky130_fd_sc_hd__fill_2
XFILLER_1_152 _16_/VGND _19_/VPWR sky130_fd_sc_hd__decap_8
XANTENNA_mem_bottom_ipin_0.sc_dff_compact_5_.sky130_fd_sc_hd__dfrbp_1_CLK clkbuf_3_0_0_prog_clk/X
+ _25_/VGND _17_/VPWR sky130_fd_sc_hd__diode_2
XFILLER_1_7 _16_/VGND _19_/VPWR sky130_fd_sc_hd__fill_1
XFILLER_24_83 _14_/VGND _15_/VPWR sky130_fd_sc_hd__decap_4
XFILLER_24_50 _14_/VGND _15_/VPWR sky130_fd_sc_hd__decap_8
X_23_ chanx_in_4_ chanx_out_4_ _16_/VGND _19_/VPWR sky130_fd_sc_hd__buf_2
XFILLER_1_87 _16_/VGND _19_/VPWR sky130_fd_sc_hd__fill_2
XFILLER_19_148 PHY_39/VGND _27_/VPWR sky130_fd_sc_hd__fill_2
XANTENNA_mem_top_ipin_3.sc_dff_compact_0_.sky130_fd_sc_hd__dfrbp_1_RESET_B pReset
+ PHY_39/VGND _27_/VPWR sky130_fd_sc_hd__diode_2
XFILLER_19_104 PHY_39/VGND _27_/VPWR sky130_fd_sc_hd__fill_2
XFILLER_25_3 _14_/VGND _11_/VPWR sky130_fd_sc_hd__decap_4
X_06_ _06_/HI bottom_grid_pin_14_ _06_/VGND _06_/VPWR sky130_fd_sc_hd__conb_1
XPHY_124 _11_/VGND _11_/VPWR sky130_fd_sc_hd__tapvpwrvgnd_1
XPHY_113 _20_/VGND _20_/VPWR sky130_fd_sc_hd__tapvpwrvgnd_1
XFILLER_21_62 _27_/VGND _20_/VPWR sky130_fd_sc_hd__fill_2
XPHY_102 PHY_39/VGND PHY_37/VPWR sky130_fd_sc_hd__tapvpwrvgnd_1
XFILLER_16_118 PHY_35/VGND PHY_33/VPWR sky130_fd_sc_hd__decap_3
XANTENNA_mem_top_ipin_5.sc_dff_compact_1_.sky130_fd_sc_hd__dfrbp_1_RESET_B pReset
+ _00_/VGND _06_/VPWR sky130_fd_sc_hd__diode_2
XPHY_4 _19_/VGND _19_/VPWR sky130_fd_sc_hd__decap_3
XFILLER_7_53 _17_/VGND PHY_17/VPWR sky130_fd_sc_hd__decap_4
XANTENNA_mem_top_ipin_7.sc_dff_compact_2_.sky130_fd_sc_hd__dfrbp_1_RESET_B pReset
+ _20_/VGND _15_/VPWR sky130_fd_sc_hd__diode_2
XANTENNA_clkbuf_1_1_0_prog_clk_A clkbuf_0_prog_clk/X _00_/VGND _06_/VPWR sky130_fd_sc_hd__diode_2
XFILLER_16_51 PHY_35/VGND PHY_33/VPWR sky130_fd_sc_hd__decap_4
XFILLER_12_154 _00_/VGND _00_/VPWR sky130_fd_sc_hd__decap_6
XANTENNA_mem_top_ipin_0.sc_dff_compact_3_.sky130_fd_sc_hd__dfrbp_1_CLK clkbuf_3_4_0_prog_clk/X
+ PHY_23/VGND _00_/VPWR sky130_fd_sc_hd__diode_2
XFILLER_8_147 PHY_19/VGND PHY_17/VPWR sky130_fd_sc_hd__decap_6
XANTENNA_mem_top_ipin_2.sc_dff_compact_5_.sky130_fd_sc_hd__dfrbp_1_CLK clkbuf_3_7_0_prog_clk/X
+ PHY_39/VGND PHY_37/VPWR sky130_fd_sc_hd__diode_2
XANTENNA_mem_top_ipin_1.sc_dff_compact_4_.sky130_fd_sc_hd__dfrbp_1_CLK clkbuf_3_5_0_prog_clk/X
+ _17_/VGND _17_/VPWR sky130_fd_sc_hd__diode_2
XFILLER_23_19 _20_/VGND _15_/VPWR sky130_fd_sc_hd__fill_2
XFILLER_4_32 _25_/VGND _24_/VPWR sky130_fd_sc_hd__fill_2
XFILLER_4_76 _25_/VGND _24_/VPWR sky130_fd_sc_hd__decap_12
Xclkbuf_3_1_0_prog_clk clkbuf_2_0_0_prog_clk/X clkbuf_3_1_0_prog_clk/X _17_/VGND _17_/VPWR
+ sky130_fd_sc_hd__clkbuf_1
Xmem_top_ipin_6.sc_dff_compact_1_.sky130_fd_sc_hd__dfrbp_1 mem_top_ipin_6.sc_dff_compact_1_.sky130_fd_sc_hd__dfrbp_1/D
+ mem_top_ipin_6.sc_dff_compact_1_.sky130_fd_sc_hd__dfrbp_1/Q mem_top_ipin_6.sc_dff_compact_1_.sky130_fd_sc_hd__dfrbp_1/Q_N
+ pReset clkbuf_3_2_0_prog_clk/X _14_/VGND _11_/VPWR sky130_fd_sc_hd__dfrbp_1
XFILLER_1_120 _16_/VGND _19_/VPWR sky130_fd_sc_hd__fill_2
XANTENNA_mem_bottom_ipin_0.sc_dff_compact_3_.sky130_fd_sc_hd__dfrbp_1_RESET_B pReset
+ _25_/VGND _17_/VPWR sky130_fd_sc_hd__diode_2
Xmem_top_ipin_3.sc_dff_compact_2_.sky130_fd_sc_hd__dfrbp_1 mem_top_ipin_3.sc_dff_compact_1_.sky130_fd_sc_hd__dfrbp_1/Q
+ mem_top_ipin_3.sc_dff_compact_2_.sky130_fd_sc_hd__dfrbp_1/Q mem_top_ipin_3.sc_dff_compact_2_.sky130_fd_sc_hd__dfrbp_1/Q_N
+ pReset clkbuf_3_6_0_prog_clk/X PHY_39/VGND PHY_37/VPWR sky130_fd_sc_hd__dfrbp_1
XFILLER_1_55 _16_/VGND _19_/VPWR sky130_fd_sc_hd__fill_2
XFILLER_1_44 _16_/VGND _19_/VPWR sky130_fd_sc_hd__fill_2